REMARK  3 active torsions:
REMARK  status: ('A' for Active; 'I' for Inactive)
REMARK    1  A    between atoms: C_11  and  C_12 
REMARK       I    between atoms: C_12  and  N_13 
REMARK    2  A    between atoms: N_13  and  C_15 
REMARK    3  A    between atoms: C_19  and  C_20 
ROOT
ATOM      1  C   UNL d   1       8.303   2.377  -0.450  0.00  0.00     0.276 C 
ATOM      2  N   UNL d   1       8.381   3.686  -0.053  0.00  0.00    -0.300 N 
ATOM      3  O   UNL d   1       9.229   1.692  -0.865  0.00  0.00    -0.266 OA
ATOM      4  H   UNL d   1       7.586   4.131   0.379  0.00  0.00     0.171 HD
ENDROOT
BRANCH   1   5
ATOM      5  C   UNL d   1       6.981   1.795  -0.286  0.00  0.00     0.124 A 
ATOM      6  C   UNL d   1       5.749   2.324   0.056  0.00  0.00     0.079 A 
ATOM      7 CL   UNL d   1       5.364   3.944   0.441  0.00  0.00    -0.081 Cl
ATOM      8  C   UNL d   1       4.780   1.280   0.026  0.00  0.00     0.016 A 
ATOM      9  C   UNL d   1       3.389   1.221   0.248  0.00  0.00     0.039 A 
ATOM     10  C   UNL d   1       5.454   0.110  -0.312  0.00  0.00     0.044 A 
ATOM     11  C   UNL d   1       2.732  -0.005   0.119  0.00  0.00     0.035 A 
ATOM     12  C   UNL d   1       3.433  -1.163  -0.212  0.00  0.00     0.026 A 
ATOM     13 CL   UNL d   1       1.030  -0.080   0.364  0.00  0.00    -0.084 Cl
ATOM     14  C   UNL d   1       4.814  -1.129  -0.431  0.00  0.00     0.032 A 
ATOM     15  N   UNL d   1       6.777   0.445  -0.487  0.00  0.00    -0.350 N 
ATOM     16  H   UNL d   1       7.519  -0.198  -0.742  0.00  0.00     0.166 HD
ENDBRANCH   1   5
BRANCH   2  17
ATOM     17  C   UNL d   1       9.524   4.423  -0.103  0.00  0.00     0.173 A 
ATOM     18  N   UNL d   1      10.657   4.178  -0.703  0.00  0.00    -0.228 NA
ATOM     19  C   UNL d   1      11.542   5.225  -0.486  0.00  0.00     0.048 A 
ATOM     20  C   UNL d   1      11.064   6.199   0.376  0.00  0.00     0.081 A 
ATOM     21  S   UNL d   1       9.425   5.887   0.766  0.00  0.00    -0.062 SA
BRANCH  19  22
ATOM     22  C   UNL d   1      12.900   5.213  -1.152  0.00  0.00     0.042 C 
ATOM     23  C   UNL d   1      13.137   6.467  -2.013  0.00  0.00     0.041 C 
ATOM     24  C   UNL d   1      12.344   6.421  -3.318  0.00  0.00     0.270 C 
ATOM     25  N   UNL d   1      12.645   5.223  -4.105  0.00  0.00     0.083 N 
ATOM     26  C   UNL d   1      12.381   4.003  -3.333  0.00  0.00     0.270 C 
ATOM     27  H   UNL d   1      13.625   5.236  -4.378  0.00  0.00     0.315 HD
ATOM     28  C   UNL d   1      13.157   3.967  -2.014  0.00  0.00     0.041 C 
ENDBRANCH  19  22
ENDBRANCH   2  17
TORSDOF 3
