@<TRIPOS>MOLECULE
*****
 41 44 0 0 0
SMALL
GASTEIGER

@<TRIPOS>ATOM
      1 CL          1.0302   -0.0798    0.3637 Cl      1  UNL1       -0.0835
      2 C           2.7317   -0.0054    0.1188 C.ar    1  UNL1        0.0417
      3 C           3.4331   -1.1633   -0.2117 C.ar    1  UNL1       -0.0414
      4 C           3.3887    1.2209    0.2481 C.ar    1  UNL1       -0.0328
      5 C           4.8136   -1.1293   -0.4306 C.ar    1  UNL1       -0.0364
      6 C           4.7797    1.2802    0.0260 C.ar    1  UNL1        0.0201
      7 C           5.4543    0.1096   -0.3121 C.ar    1  UNL1        0.0485
      8 C           5.7489    2.3243    0.0564 C.ar    1  UNL1        0.0785
      9 N           6.7773    0.4448   -0.4873 N.ar    1  UNL1       -0.3494
     10 CL          5.3643    3.9438    0.4412 Cl      1  UNL1       -0.0806
     11 C           6.9812    1.7950   -0.2856 C.ar    1  UNL1        0.1217
     12 C           8.3030    2.3775   -0.4497 C.2     1  UNL1        0.2674
     13 N           8.3809    3.6863   -0.0530 N.am    1  UNL1       -0.2594
     14 O           9.2290    1.6920   -0.8648 O.2     1  UNL1       -0.2682
     15 C           9.5238    4.4234   -0.1035 C.ar    1  UNL1        0.1649
     16 S           9.4249    5.8868    0.7664 S.2     1  UNL1       -0.0602
     17 N          10.6571    4.1784   -0.7025 N.ar    1  UNL1       -0.2293
     18 C          11.0636    6.1989    0.3763 C.ar    1  UNL1        0.0005
     19 C          11.5422    5.2253   -0.4861 C.ar    1  UNL1        0.0537
     20 C          12.9004    5.2131   -1.1520 C.3     1  UNL1        0.0042
     21 C          13.1367    6.4667   -2.0129 C.3     1  UNL1       -0.0321
     22 C          13.1569    3.9673   -2.0144 C.3     1  UNL1       -0.0321
     23 C          12.3439    6.4209   -3.3184 C.3     1  UNL1       -0.0035
     24 C          12.3806    4.0025   -3.3335 C.3     1  UNL1       -0.0035
     25 N          12.6446    5.2231   -4.1053 N.3     1  UNL1       -0.3159
     26 H           2.9035   -2.1082   -0.3073 H       1  UNL1        0.0633
     27 H           2.8338    2.1187    0.5080 H       1  UNL1        0.0639
     28 H           5.3574   -2.0314   -0.6904 H       1  UNL1        0.0639
     29 H           7.5185   -0.1983   -0.7416 H       1  UNL1        0.1661
     30 H           7.5856    4.1307    0.3788 H       1  UNL1        0.1571
     31 H          11.5684    7.0785    0.7482 H       1  UNL1        0.0712
     32 H          13.6392    5.2152   -0.3386 H       1  UNL1        0.0365
     33 H          14.2068    6.5360   -2.2509 H       1  UNL1        0.0284
     34 H          12.8848    7.3815   -1.4635 H       1  UNL1        0.0284
     35 H          14.2305    3.9142   -2.2415 H       1  UNL1        0.0284
     36 H          12.9132    3.0511   -1.4635 H       1  UNL1        0.0284
     37 H          12.5957    7.3009   -3.9209 H       1  UNL1        0.0424
     38 H          11.2660    6.4817   -3.1225 H       1  UNL1        0.0424
     39 H          12.6773    3.1413   -3.9428 H       1  UNL1        0.0424
     40 H          11.3034    3.8987   -3.1676 H       1  UNL1        0.0424
     41 H          13.6250    5.2361   -4.3780 H       1  UNL1        0.1219
@<TRIPOS>BOND
     1    10     8    1
     2     8    11   ar
     3    11     9   ar
     4     9     7   ar
     5     7     5   ar
     6     5     3   ar
     7     3     2   ar
     8     2     1    1
     9     2     4   ar
    10     4     6   ar
    11     8     6   ar
    12     7     6   ar
    13    11    12    1
    14    12    14    2
    15    12    13   am
    16    13    15    1
    17    15    17   ar
    18    17    19   ar
    19    19    18   ar
    20    18    16   ar
    21    15    16   ar
    22    19    20    1
    23    20    21    1
    24    21    23    1
    25    23    25    1
    26    25    24    1
    27    24    22    1
    28    20    22    1
    29     3    26    1
    30     4    27    1
    31     5    28    1
    32     9    29    1
    33    13    30    1
    34    18    31    1
    35    20    32    1
    36    21    33    1
    37    21    34    1
    38    22    35    1
    39    22    36    1
    40    23    37    1
    41    23    38    1
    42    24    39    1
    43    24    40    1
    44    25    41    1
