MODEL 1
REMARK VINA RESULT:   -11.278      0.000      0.000
REMARK INTER + INTRA:         -13.623
REMARK INTER:                 -13.173
REMARK INTRA:                  -0.450
REMARK UNBOUND:                -0.367
REMARK  3 active torsions:
REMARK  status: ('A' for Active; 'I' for Inactive)
REMARK    1  A    between atoms: C_11  and  C_12 
REMARK       I    between atoms: C_12  and  N_13 
REMARK    2  A    between atoms: N_13  and  C_15 
REMARK    3  A    between atoms: C_19  and  C_20 
ROOT
ATOM      1  C   UNL d   1     -14.056 -43.527  27.296  0.00  0.00     0.276 C 
ATOM      2  N   UNL d   1     -14.113 -44.609  28.135  0.00  0.00    -0.300 N 
ATOM      3  O   UNL d   1     -13.041 -42.943  26.939  0.00  0.00    -0.266 OA
ATOM      4  H   UNL d   1     -14.988 -45.089  28.281  0.00  0.00     0.171 HD
ENDROOT
BRANCH   1   5
ATOM      5  C   UNL d   1     -15.352 -43.121  26.778  0.00  0.00     0.124 A 
ATOM      6  C   UNL d   1     -15.876 -43.032  25.500  0.00  0.00     0.079 A 
ATOM      7 CL   UNL d   1     -15.104 -43.377  24.015  0.00  0.00    -0.081 Cl
ATOM      8  C   UNL d   1     -17.232 -42.605  25.592  0.00  0.00     0.016 A 
ATOM      9  C   UNL d   1     -18.256 -42.370  24.651  0.00  0.00     0.039 A 
ATOM     10  C   UNL d   1     -17.507 -42.412  26.943  0.00  0.00     0.044 A 
ATOM     11  C   UNL d   1     -19.511 -41.956  25.103  0.00  0.00     0.035 A 
ATOM     12  C   UNL d   1     -19.756 -41.762  26.461  0.00  0.00     0.026 A 
ATOM     13 CL   UNL d   1     -20.773 -41.693  23.963  0.00  0.00    -0.084 Cl
ATOM     14  C   UNL d   1     -18.754 -41.983  27.411  0.00  0.00     0.032 A 
ATOM     15  N   UNL d   1     -16.358 -42.722  27.634  0.00  0.00    -0.350 N 
ATOM     16  H   UNL d   1     -16.248 -42.680  28.642  0.00  0.00     0.166 HD
ENDBRANCH   1   5
BRANCH   2  17
ATOM     17  C   UNL d   1     -13.020 -45.168  28.721  0.00  0.00     0.173 A 
ATOM     18  N   UNL d   1     -12.520 -44.988  29.914  0.00  0.00    -0.228 NA
ATOM     19  C   UNL d   1     -11.395 -45.783  30.079  0.00  0.00     0.048 A 
ATOM     20  C   UNL d   1     -11.020 -46.476  28.939  0.00  0.00     0.081 A 
ATOM     21  S   UNL d   1     -12.197 -46.268  27.711  0.00  0.00    -0.062 SA
BRANCH  19  22
ATOM     22  C   UNL d   1     -10.685 -45.814  31.414  0.00  0.00     0.042 C 
ATOM     23  C   UNL d   1     -10.683 -44.438  32.104  0.00  0.00     0.041 C 
ATOM     24  C   UNL d   1      -9.698 -43.472  31.448  0.00  0.00     0.270 C 
ATOM     25  N   UNL d   1      -8.335 -44.007  31.420  0.00  0.00     0.083 N 
ATOM     26  C   UNL d   1      -8.288 -45.298  30.722  0.00  0.00     0.270 C 
ATOM     27  H   UNL d   1      -8.003 -44.134  32.373  0.00  0.00     0.315 HD
ATOM     28  C   UNL d   1      -9.239 -46.329  31.336  0.00  0.00     0.041 C 
ENDBRANCH  19  22
ENDBRANCH   2  17
TORSDOF 3
ENDMDL
MODEL 2
REMARK VINA RESULT:   -10.741      2.098      2.757
REMARK INTER + INTRA:         -12.991
REMARK INTER:                 -12.713
REMARK INTRA:                  -0.278
REMARK UNBOUND:                -0.367
REMARK  3 active torsions:
REMARK  status: ('A' for Active; 'I' for Inactive)
REMARK    1  A    between atoms: C_11  and  C_12 
REMARK       I    between atoms: C_12  and  N_13 
REMARK    2  A    between atoms: N_13  and  C_15 
REMARK    3  A    between atoms: C_19  and  C_20 
ROOT
ATOM      1  C   UNL d   1     -13.333 -43.997  27.324  0.00  0.00     0.276 C 
ATOM      2  N   UNL d   1     -12.555 -42.942  27.721  0.00  0.00    -0.300 N 
ATOM      3  O   UNL d   1     -13.161 -45.172  27.620  0.00  0.00    -0.266 OA
ATOM      4  H   UNL d   1     -12.842 -41.997  27.517  0.00  0.00     0.171 HD
ENDROOT
BRANCH   1   5
ATOM      5  C   UNL d   1     -14.483 -43.606  26.525  0.00  0.00     0.124 A 
ATOM      6  C   UNL d   1     -15.739 -43.122  26.846  0.00  0.00     0.079 A 
ATOM      7 CL   UNL d   1     -16.393 -42.824  28.397  0.00  0.00    -0.081 Cl
ATOM      8  C   UNL d   1     -16.453 -42.871  25.639  0.00  0.00     0.016 A 
ATOM      9  C   UNL d   1     -17.732 -42.358  25.340  0.00  0.00     0.039 A 
ATOM     10  C   UNL d   1     -15.617 -43.239  24.589  0.00  0.00     0.044 A 
ATOM     11  C   UNL d   1     -18.117 -42.232  24.003  0.00  0.00     0.035 A 
ATOM     12  C   UNL d   1     -17.264 -42.616  22.971  0.00  0.00     0.026 A 
ATOM     13 CL   UNL d   1     -19.667 -41.583  23.630  0.00  0.00    -0.084 Cl
ATOM     14  C   UNL d   1     -15.993 -43.133  23.245  0.00  0.00     0.032 A 
ATOM     15  N   UNL d   1     -14.442 -43.684  25.148  0.00  0.00    -0.350 N 
ATOM     16  H   UNL d   1     -13.634 -44.019  24.634  0.00  0.00     0.166 HD
ENDBRANCH   1   5
BRANCH   2  17
ATOM     17  C   UNL d   1     -11.439 -43.074  28.489  0.00  0.00     0.173 A 
ATOM     18  N   UNL d   1     -11.312 -43.461  29.729  0.00  0.00    -0.228 NA
ATOM     19  C   UNL d   1      -9.972 -43.451  30.092  0.00  0.00     0.048 A 
ATOM     20  C   UNL d   1      -9.127 -42.946  29.117  0.00  0.00     0.081 A 
ATOM     21  S   UNL d   1     -10.001 -42.658  27.671  0.00  0.00    -0.062 SA
BRANCH  19  22
ATOM     22  C   UNL d   1      -9.560 -43.942  31.461  0.00  0.00     0.042 C 
ATOM     23  C   UNL d   1      -8.036 -43.873  31.670  0.00  0.00     0.041 C 
ATOM     24  C   UNL d   1      -7.305 -44.975  30.903  0.00  0.00     0.270 C 
ATOM     25  N   UNL d   1      -7.789 -46.310  31.261  0.00  0.00     0.083 N 
ATOM     26  C   UNL d   1      -9.232 -46.431  31.027  0.00  0.00     0.270 C 
ATOM     27  H   UNL d   1      -7.598 -46.486  32.245  0.00  0.00     0.315 HD
ATOM     28  C   UNL d   1     -10.037 -45.368  31.779  0.00  0.00     0.041 C 
ENDBRANCH  19  22
ENDBRANCH   2  17
TORSDOF 3
ENDMDL
MODEL 3
REMARK VINA RESULT:   -10.549      1.718      2.308
REMARK INTER + INTRA:         -12.766
REMARK INTER:                 -12.470
REMARK INTRA:                  -0.296
REMARK UNBOUND:                -0.367
REMARK  3 active torsions:
REMARK  status: ('A' for Active; 'I' for Inactive)
REMARK    1  A    between atoms: C_11  and  C_12 
REMARK       I    between atoms: C_12  and  N_13 
REMARK    2  A    between atoms: N_13  and  C_15 
REMARK    3  A    between atoms: C_19  and  C_20 
ROOT
ATOM      1  C   UNL d   1     -14.625 -43.375  26.564  0.00  0.00     0.276 C 
ATOM      2  N   UNL d   1     -14.357 -44.112  27.687  0.00  0.00    -0.300 N 
ATOM      3  O   UNL d   1     -13.835 -43.116  25.665  0.00  0.00    -0.266 OA
ATOM      4  H   UNL d   1     -15.103 -44.365  28.316  0.00  0.00     0.171 HD
ENDROOT
BRANCH   1   5
ATOM      5  C   UNL d   1     -16.008 -42.938  26.469  0.00  0.00     0.124 A 
ATOM      6  C   UNL d   1     -16.973 -42.636  27.414  0.00  0.00     0.079 A 
ATOM      7 CL   UNL d   1     -16.843 -42.703  29.116  0.00  0.00    -0.081 Cl
ATOM      8  C   UNL d   1     -18.156 -42.218  26.740  0.00  0.00     0.016 A 
ATOM      9  C   UNL d   1     -19.424 -41.769  27.163  0.00  0.00     0.039 A 
ATOM     10  C   UNL d   1     -17.897 -42.300  25.375  0.00  0.00     0.044 A 
ATOM     11  C   UNL d   1     -20.376 -41.420  26.202  0.00  0.00     0.035 A 
ATOM     12  C   UNL d   1     -20.093 -41.520  24.842  0.00  0.00     0.026 A 
ATOM     13 CL   UNL d   1     -21.917 -40.848  26.711  0.00  0.00    -0.084 Cl
ATOM     14  C   UNL d   1     -18.844 -41.968  24.399  0.00  0.00     0.032 A 
ATOM     15  N   UNL d   1     -16.601 -42.743  25.238  0.00  0.00    -0.350 N 
ATOM     16  H   UNL d   1     -16.122 -42.900  24.358  0.00  0.00     0.166 HD
ENDBRANCH   1   5
BRANCH   2  17
ATOM     17  C   UNL d   1     -13.133 -44.637  27.972  0.00  0.00     0.173 A 
ATOM     18  N   UNL d   1     -12.089 -44.083  28.526  0.00  0.00    -0.228 NA
ATOM     19  C   UNL d   1     -11.061 -45.010  28.626  0.00  0.00     0.048 A 
ATOM     20  C   UNL d   1     -11.342 -46.232  28.036  0.00  0.00     0.081 A 
ATOM     21  S   UNL d   1     -12.975 -46.273  27.518  0.00  0.00    -0.062 SA
BRANCH  19  22
ATOM     22  C   UNL d   1      -9.769 -44.629  29.313  0.00  0.00     0.042 C 
ATOM     23  C   UNL d   1      -9.299 -45.706  30.308  0.00  0.00     0.041 C 
ATOM     24  C   UNL d   1     -10.139 -45.708  31.585  0.00  0.00     0.270 C 
ATOM     25  N   UNL d   1     -10.142 -44.400  32.245  0.00  0.00     0.083 N 
ATOM     26  C   UNL d   1     -10.634 -43.353  31.342  0.00  0.00     0.270 C 
ATOM     27  H   UNL d   1      -9.196 -44.167  32.537  0.00  0.00     0.315 HD
ATOM     28  C   UNL d   1      -9.829 -43.277  30.042  0.00  0.00     0.041 C 
ENDBRANCH  19  22
ENDBRANCH   2  17
TORSDOF 3
ENDMDL
MODEL 4
REMARK VINA RESULT:   -10.086      3.066      9.006
REMARK INTER + INTRA:         -12.222
REMARK INTER:                 -12.378
REMARK INTRA:                   0.156
REMARK UNBOUND:                -0.367
REMARK  3 active torsions:
REMARK  status: ('A' for Active; 'I' for Inactive)
REMARK    1  A    between atoms: C_11  and  C_12 
REMARK       I    between atoms: C_12  and  N_13 
REMARK    2  A    between atoms: N_13  and  C_15 
REMARK    3  A    between atoms: C_19  and  C_20 
ROOT
ATOM      1  C   UNL d   1     -13.621 -44.510  27.260  0.00  0.00     0.276 C 
ATOM      2  N   UNL d   1     -14.346 -43.351  27.341  0.00  0.00    -0.300 N 
ATOM      3  O   UNL d   1     -13.800 -45.420  26.461  0.00  0.00    -0.266 OA
ATOM      4  H   UNL d   1     -14.051 -42.612  27.961  0.00  0.00     0.171 HD
ENDROOT
BRANCH   1   5
ATOM      5  C   UNL d   1     -12.518 -44.575  28.205  0.00  0.00     0.124 A 
ATOM      6  C   UNL d   1     -11.439 -43.748  28.461  0.00  0.00     0.079 A 
ATOM      7 CL   UNL d   1     -11.018 -42.288  27.678  0.00  0.00    -0.081 Cl
ATOM      8  C   UNL d   1     -10.689 -44.296  29.541  0.00  0.00     0.016 A 
ATOM      9  C   UNL d   1      -9.536 -43.892  30.244  0.00  0.00     0.039 A 
ATOM     10  C   UNL d   1     -11.318 -45.481  29.912  0.00  0.00     0.044 A 
ATOM     11  C   UNL d   1      -9.064 -44.689  31.290  0.00  0.00     0.035 A 
ATOM     12  C   UNL d   1      -9.708 -45.875  31.634  0.00  0.00     0.026 A 
ATOM     13 CL   UNL d   1      -7.671 -44.189  32.169  0.00  0.00    -0.084 Cl
ATOM     14  C   UNL d   1     -10.850 -46.299  30.947  0.00  0.00     0.032 A 
ATOM     15  N   UNL d   1     -12.410 -45.630  29.089  0.00  0.00    -0.350 N 
ATOM     16  H   UNL d   1     -13.070 -46.400  29.119  0.00  0.00     0.166 HD
ENDBRANCH   1   5
BRANCH   2  17
ATOM     17  C   UNL d   1     -15.411 -43.070  26.542  0.00  0.00     0.173 A 
ATOM     18  N   UNL d   1     -16.589 -42.596  26.846  0.00  0.00    -0.228 NA
ATOM     19  C   UNL d   1     -17.355 -42.462  25.696  0.00  0.00     0.048 A 
ATOM     20  C   UNL d   1     -16.743 -42.946  24.550  0.00  0.00     0.081 A 
ATOM     21  S   UNL d   1     -15.127 -43.401  24.893  0.00  0.00    -0.062 SA
BRANCH  19  22
ATOM     22  C   UNL d   1     -18.736 -41.851  25.779  0.00  0.00     0.042 C 
ATOM     23  C   UNL d   1     -19.310 -41.901  27.206  0.00  0.00     0.041 C 
ATOM     24  C   UNL d   1     -19.759 -43.310  27.591  0.00  0.00     0.270 C 
ATOM     25  N   UNL d   1     -20.741 -43.852  26.650  0.00  0.00     0.083 N 
ATOM     26  C   UNL d   1     -20.210 -43.869  25.282  0.00  0.00     0.270 C 
ATOM     27  H   UNL d   1     -21.582 -43.279  26.671  0.00  0.00     0.315 HD
ATOM     28  C   UNL d   1     -19.753 -42.484  24.816  0.00  0.00     0.041 C 
ENDBRANCH  19  22
ENDBRANCH   2  17
TORSDOF 3
ENDMDL
MODEL 5
REMARK VINA RESULT:    -9.662      3.431      9.283
REMARK INTER + INTRA:         -11.724
REMARK INTER:                 -11.801
REMARK INTRA:                   0.077
REMARK UNBOUND:                -0.367
REMARK  3 active torsions:
REMARK  status: ('A' for Active; 'I' for Inactive)
REMARK    1  A    between atoms: C_11  and  C_12 
REMARK       I    between atoms: C_12  and  N_13 
REMARK    2  A    between atoms: N_13  and  C_15 
REMARK    3  A    between atoms: C_19  and  C_20 
ROOT
ATOM      1  C   UNL d   1     -14.168 -43.961  26.758  0.00  0.00     0.276 C 
ATOM      2  N   UNL d   1     -14.934 -42.837  26.929  0.00  0.00    -0.300 N 
ATOM      3  O   UNL d   1     -14.437 -44.915  26.040  0.00  0.00    -0.266 OA
ATOM      4  H   UNL d   1     -14.574 -42.056  27.455  0.00  0.00     0.171 HD
ENDROOT
BRANCH   1   5
ATOM      5  C   UNL d   1     -12.909 -43.926  27.483  0.00  0.00     0.124 A 
ATOM      6  C   UNL d   1     -12.316 -44.783  28.393  0.00  0.00     0.079 A 
ATOM      7 CL   UNL d   1     -12.926 -46.253  29.014  0.00  0.00    -0.081 Cl
ATOM      8  C   UNL d   1     -11.043 -44.255  28.754  0.00  0.00     0.016 A 
ATOM      9  C   UNL d   1      -9.999 -44.691  29.596  0.00  0.00     0.039 A 
ATOM     10  C   UNL d   1     -10.892 -43.053  28.068  0.00  0.00     0.044 A 
ATOM     11  C   UNL d   1      -8.848 -43.907  29.712  0.00  0.00     0.035 A 
ATOM     12  C   UNL d   1      -8.727 -42.703  29.020  0.00  0.00     0.026 A 
ATOM     13 CL   UNL d   1      -7.559 -44.445  30.718  0.00  0.00    -0.084 Cl
ATOM     14  C   UNL d   1      -9.753 -42.249  28.185  0.00  0.00     0.032 A 
ATOM     15  N   UNL d   1     -12.031 -42.874  27.317  0.00  0.00    -0.350 N 
ATOM     16  H   UNL d   1     -12.216 -42.086  26.706  0.00  0.00     0.166 HD
ENDBRANCH   1   5
BRANCH   2  17
ATOM     17  C   UNL d   1     -16.142 -42.649  26.331  0.00  0.00     0.173 A 
ATOM     18  N   UNL d   1     -17.323 -42.474  26.859  0.00  0.00    -0.228 NA
ATOM     19  C   UNL d   1     -18.268 -42.311  25.856  0.00  0.00     0.048 A 
ATOM     20  C   UNL d   1     -17.767 -42.475  24.575  0.00  0.00     0.081 A 
ATOM     21  S   UNL d   1     -16.063 -42.650  24.628  0.00  0.00    -0.062 SA
BRANCH  19  22
ATOM     22  C   UNL d   1     -19.705 -42.008  26.219  0.00  0.00     0.042 C 
ATOM     23  C   UNL d   1     -20.427 -43.232  26.812  0.00  0.00     0.041 C 
ATOM     24  C   UNL d   1     -20.771 -44.265  25.741  0.00  0.00     0.270 C 
ATOM     25  N   UNL d   1     -21.581 -43.694  24.663  0.00  0.00     0.083 N 
ATOM     26  C   UNL d   1     -20.901 -42.554  24.037  0.00  0.00     0.270 C 
ATOM     27  H   UNL d   1     -22.473 -43.381  25.040  0.00  0.00     0.315 HD
ATOM     28  C   UNL d   1     -20.538 -41.464  25.048  0.00  0.00     0.041 C 
ENDBRANCH  19  22
ENDBRANCH   2  17
TORSDOF 3
ENDMDL
MODEL 6
REMARK VINA RESULT:    -9.625      2.516      3.828
REMARK INTER + INTRA:         -11.680
REMARK INTER:                 -11.658
REMARK INTRA:                  -0.023
REMARK UNBOUND:                -0.367
REMARK  3 active torsions:
REMARK  status: ('A' for Active; 'I' for Inactive)
REMARK    1  A    between atoms: C_11  and  C_12 
REMARK       I    between atoms: C_12  and  N_13 
REMARK    2  A    between atoms: N_13  and  C_15 
REMARK    3  A    between atoms: C_19  and  C_20 
ROOT
ATOM      1  C   UNL d   1     -15.833 -43.085  24.388  0.00  0.00     0.276 C 
ATOM      2  N   UNL d   1     -15.609 -42.961  25.734  0.00  0.00    -0.300 N 
ATOM      3  O   UNL d   1     -15.157 -43.735  23.601  0.00  0.00    -0.266 OA
ATOM      4  H   UNL d   1     -16.286 -42.494  26.318  0.00  0.00     0.171 HD
ENDROOT
BRANCH   1   5
ATOM      5  C   UNL d   1     -17.031 -42.401  23.930  0.00  0.00     0.124 A 
ATOM      6  C   UNL d   1     -18.284 -42.212  24.484  0.00  0.00     0.079 A 
ATOM      7 CL   UNL d   1     -18.874 -42.780  25.984  0.00  0.00    -0.081 Cl
ATOM      8  C   UNL d   1     -19.062 -41.418  23.593  0.00  0.00     0.016 A 
ATOM      9  C   UNL d   1     -20.369 -40.890  23.630  0.00  0.00     0.039 A 
ATOM     10  C   UNL d   1     -18.265 -41.156  22.482  0.00  0.00     0.044 A 
ATOM     11  C   UNL d   1     -20.821 -40.120  22.555  0.00  0.00     0.035 A 
ATOM     12  C   UNL d   1     -20.005 -39.880  21.451  0.00  0.00     0.026 A 
ATOM     13 CL   UNL d   1     -22.406 -39.451  22.604  0.00  0.00    -0.084 Cl
ATOM     14  C   UNL d   1     -18.707 -40.399  21.391  0.00  0.00     0.032 A 
ATOM     15  N   UNL d   1     -17.052 -41.764  22.706  0.00  0.00    -0.350 N 
ATOM     16  H   UNL d   1     -16.259 -41.749  22.073  0.00  0.00     0.166 HD
ENDBRANCH   1   5
BRANCH   2  17
ATOM     17  C   UNL d   1     -14.557 -43.533  26.381  0.00  0.00     0.173 A 
ATOM     18  N   UNL d   1     -14.462 -44.693  26.970  0.00  0.00    -0.228 NA
ATOM     19  C   UNL d   1     -13.185 -44.857  27.488  0.00  0.00     0.048 A 
ATOM     20  C   UNL d   1     -12.374 -43.741  27.353  0.00  0.00     0.081 A 
ATOM     21  S   UNL d   1     -13.162 -42.551  26.406  0.00  0.00    -0.062 SA
BRANCH  19  22
ATOM     22  C   UNL d   1     -12.802 -46.162  28.148  0.00  0.00     0.042 C 
ATOM     23  C   UNL d   1     -13.186 -46.196  29.639  0.00  0.00     0.041 C 
ATOM     24  C   UNL d   1     -12.254 -45.334  30.488  0.00  0.00     0.270 C 
ATOM     25  N   UNL d   1     -10.850 -45.725  30.336  0.00  0.00     0.083 N 
ATOM     26  C   UNL d   1     -10.431 -45.655  28.931  0.00  0.00     0.270 C 
ATOM     27  H   UNL d   1     -10.727 -46.677  30.671  0.00  0.00     0.315 HD
ATOM     28  C   UNL d   1     -11.311 -46.510  28.016  0.00  0.00     0.041 C 
ENDBRANCH  19  22
ENDBRANCH   2  17
TORSDOF 3
ENDMDL
MODEL 7
REMARK VINA RESULT:    -9.529      1.666      2.234
REMARK INTER + INTRA:         -11.567
REMARK INTER:                 -11.613
REMARK INTRA:                   0.046
REMARK UNBOUND:                -0.367
REMARK  3 active torsions:
REMARK  status: ('A' for Active; 'I' for Inactive)
REMARK    1  A    between atoms: C_11  and  C_12 
REMARK       I    between atoms: C_12  and  N_13 
REMARK    2  A    between atoms: N_13  and  C_15 
REMARK    3  A    between atoms: C_19  and  C_20 
ROOT
ATOM      1  C   UNL d   1     -15.837 -43.012  27.027  0.00  0.00     0.276 C 
ATOM      2  N   UNL d   1     -14.742 -43.624  26.475  0.00  0.00    -0.300 N 
ATOM      3  O   UNL d   1     -15.980 -42.713  28.206  0.00  0.00    -0.266 OA
ATOM      4  H   UNL d   1     -14.673 -43.728  25.475  0.00  0.00     0.171 HD
ENDROOT
BRANCH   1   5
ATOM      5  C   UNL d   1     -16.864 -42.667  26.058  0.00  0.00     0.124 A 
ATOM      6  C   UNL d   1     -16.906 -42.689  24.675  0.00  0.00     0.079 A 
ATOM      7 CL   UNL d   1     -15.670 -43.144  23.586  0.00  0.00    -0.081 Cl
ATOM      8  C   UNL d   1     -18.202 -42.273  24.251  0.00  0.00     0.016 A 
ATOM      9  C   UNL d   1     -18.828 -42.130  22.997  0.00  0.00     0.039 A 
ATOM     10  C   UNL d   1     -18.928 -41.974  25.401  0.00  0.00     0.044 A 
ATOM     11  C   UNL d   1     -20.156 -41.697  22.946  0.00  0.00     0.035 A 
ATOM     12  C   UNL d   1     -20.857 -41.396  24.112  0.00  0.00     0.026 A 
ATOM     13 CL   UNL d   1     -20.935 -41.543  21.419  0.00  0.00    -0.084 Cl
ATOM     14  C   UNL d   1     -20.253 -41.526  25.367  0.00  0.00     0.032 A 
ATOM     15  N   UNL d   1     -18.099 -42.212  26.473  0.00  0.00    -0.350 N 
ATOM     16  H   UNL d   1     -18.347 -42.087  27.448  0.00  0.00     0.166 HD
ENDBRANCH   1   5
BRANCH   2  17
ATOM     17  C   UNL d   1     -13.656 -44.018  27.194  0.00  0.00     0.173 A 
ATOM     18  N   UNL d   1     -13.499 -45.045  27.985  0.00  0.00    -0.228 NA
ATOM     19  C   UNL d   1     -12.209 -45.052  28.497  0.00  0.00     0.048 A 
ATOM     20  C   UNL d   1     -11.454 -43.946  28.143  0.00  0.00     0.081 A 
ATOM     21  S   UNL d   1     -12.310 -42.987  27.010  0.00  0.00    -0.062 SA
BRANCH  19  22
ATOM     22  C   UNL d   1     -11.756 -46.196  29.378  0.00  0.00     0.042 C 
ATOM     23  C   UNL d   1     -12.338 -46.101  30.800  0.00  0.00     0.041 C 
ATOM     24  C   UNL d   1     -11.653 -45.012  31.625  0.00  0.00     0.270 C 
ATOM     25  N   UNL d   1     -10.204 -45.207  31.702  0.00  0.00     0.083 N 
ATOM     26  C   UNL d   1      -9.604 -45.251  30.363  0.00  0.00     0.270 C 
ATOM     27  H   UNL d   1     -10.006 -46.082  32.181  0.00  0.00     0.315 HD
ATOM     28  C   UNL d   1     -10.229 -46.333  29.478  0.00  0.00     0.041 C 
ENDBRANCH  19  22
ENDBRANCH   2  17
TORSDOF 3
ENDMDL
MODEL 8
REMARK VINA RESULT:    -8.939      6.536     12.479
REMARK INTER + INTRA:         -10.874
REMARK INTER:                 -10.547
REMARK INTRA:                  -0.327
REMARK UNBOUND:                -0.367
REMARK  3 active torsions:
REMARK  status: ('A' for Active; 'I' for Inactive)
REMARK    1  A    between atoms: C_11  and  C_12 
REMARK       I    between atoms: C_12  and  N_13 
REMARK    2  A    between atoms: N_13  and  C_15 
REMARK    3  A    between atoms: C_19  and  C_20 
ROOT
ATOM      1  C   UNL d   1     -19.736 -41.429  22.804  0.00  0.00     0.276 C 
ATOM      2  N   UNL d   1     -19.462 -41.232  21.476  0.00  0.00    -0.300 N 
ATOM      3  O   UNL d   1     -20.818 -41.260  23.351  0.00  0.00    -0.266 OA
ATOM      4  H   UNL d   1     -18.568 -41.505  21.099  0.00  0.00     0.171 HD
ENDROOT
BRANCH   1   5
ATOM      5  C   UNL d   1     -18.606 -41.938  23.564  0.00  0.00     0.124 A 
ATOM      6  C   UNL d   1     -18.346 -42.043  24.919  0.00  0.00     0.079 A 
ATOM      7 CL   UNL d   1     -19.334 -41.556  26.226  0.00  0.00    -0.081 Cl
ATOM      8  C   UNL d   1     -17.076 -42.665  25.092  0.00  0.00     0.016 A 
ATOM      9  C   UNL d   1     -16.315 -43.053  26.214  0.00  0.00     0.039 A 
ATOM     10  C   UNL d   1     -16.565 -42.907  23.821  0.00  0.00     0.044 A 
ATOM     11  C   UNL d   1     -15.077 -43.668  26.015  0.00  0.00     0.035 A 
ATOM     12  C   UNL d   1     -14.585 -43.890  24.730  0.00  0.00     0.026 A 
ATOM     13 CL   UNL d   1     -14.153 -44.167  27.379  0.00  0.00    -0.084 Cl
ATOM     14  C   UNL d   1     -15.320 -43.509  23.603  0.00  0.00     0.032 A 
ATOM     15  N   UNL d   1     -17.500 -42.454  22.919  0.00  0.00    -0.350 N 
ATOM     16  H   UNL d   1     -17.413 -42.495  21.909  0.00  0.00     0.166 HD
ENDBRANCH   1   5
BRANCH   2  17
ATOM     17  C   UNL d   1     -20.376 -40.777  20.576  0.00  0.00     0.173 A 
ATOM     18  N   UNL d   1     -20.598 -39.566  20.142  0.00  0.00    -0.228 NA
ATOM     19  C   UNL d   1     -21.631 -39.579  19.215  0.00  0.00     0.048 A 
ATOM     20  C   UNL d   1     -22.232 -40.818  19.056  0.00  0.00     0.081 A 
ATOM     21  S   UNL d   1     -21.371 -42.007  19.939  0.00  0.00    -0.062 SA
BRANCH  19  22
ATOM     22  C   UNL d   1     -22.019 -38.303  18.502  0.00  0.00     0.042 C 
ATOM     23  C   UNL d   1     -22.246 -37.136  19.481  0.00  0.00     0.041 C 
ATOM     24  C   UNL d   1     -23.564 -37.276  20.240  0.00  0.00     0.270 C 
ATOM     25  N   UNL d   1     -24.712 -37.387  19.337  0.00  0.00     0.083 N 
ATOM     26  C   UNL d   1     -24.556 -38.523  18.421  0.00  0.00     0.270 C 
ATOM     27  H   UNL d   1     -24.797 -36.532  18.792  0.00  0.00     0.315 HD
ATOM     28  C   UNL d   1     -23.261 -38.444  17.608  0.00  0.00     0.041 C 
ENDBRANCH  19  22
ENDBRANCH   2  17
TORSDOF 3
ENDMDL
MODEL 9
REMARK VINA RESULT:    -8.720      6.172     12.202
REMARK INTER + INTRA:         -10.616
REMARK INTER:                 -10.249
REMARK INTRA:                  -0.367
REMARK UNBOUND:                -0.367
REMARK  3 active torsions:
REMARK  status: ('A' for Active; 'I' for Inactive)
REMARK    1  A    between atoms: C_11  and  C_12 
REMARK       I    between atoms: C_12  and  N_13 
REMARK    2  A    between atoms: N_13  and  C_15 
REMARK    3  A    between atoms: C_19  and  C_20 
ROOT
ATOM      1  C   UNL d   1     -20.086 -42.061  23.528  0.00  0.00     0.276 C 
ATOM      2  N   UNL d   1     -20.217 -40.754  23.141  0.00  0.00    -0.300 N 
ATOM      3  O   UNL d   1     -20.920 -42.945  23.382  0.00  0.00    -0.266 OA
ATOM      4  H   UNL d   1     -19.430 -40.126  23.204  0.00  0.00     0.171 HD
ENDROOT
BRANCH   1   5
ATOM      5  C   UNL d   1     -18.790 -42.369  24.111  0.00  0.00     0.124 A 
ATOM      6  C   UNL d   1     -18.289 -42.297  25.399  0.00  0.00     0.079 A 
ATOM      7 CL   UNL d   1     -19.086 -41.765  26.815  0.00  0.00    -0.081 Cl
ATOM      8  C   UNL d   1     -16.945 -42.769  25.393  0.00  0.00     0.016 A 
ATOM      9  C   UNL d   1     -15.962 -42.953  26.387  0.00  0.00     0.039 A 
ATOM     10  C   UNL d   1     -16.637 -43.101  24.077  0.00  0.00     0.044 A 
ATOM     11  C   UNL d   1     -14.714 -43.464  26.021  0.00  0.00     0.035 A 
ATOM     12  C   UNL d   1     -14.429 -43.779  24.694  0.00  0.00     0.026 A 
ATOM     13 CL   UNL d   1     -13.518 -43.715  27.232  0.00  0.00    -0.084 Cl
ATOM     14  C   UNL d   1     -15.388 -43.599  23.691  0.00  0.00     0.032 A 
ATOM     15  N   UNL d   1     -17.760 -42.844  23.325  0.00  0.00    -0.350 N 
ATOM     16  H   UNL d   1     -17.845 -42.989  22.324  0.00  0.00     0.166 HD
ENDBRANCH   1   5
BRANCH   2  17
ATOM     17  C   UNL d   1     -21.339 -40.249  22.558  0.00  0.00     0.173 A 
ATOM     18  N   UNL d   1     -21.578 -39.958  21.308  0.00  0.00    -0.228 NA
ATOM     19  C   UNL d   1     -22.873 -39.474  21.176  0.00  0.00     0.048 A 
ATOM     20  C   UNL d   1     -23.544 -39.320  22.379  0.00  0.00     0.081 A 
ATOM     21  S   UNL d   1     -22.606 -39.962  23.661  0.00  0.00    -0.062 SA
BRANCH  19  22
ATOM     22  C   UNL d   1     -23.417 -39.146  19.803  0.00  0.00     0.042 C 
ATOM     23  C   UNL d   1     -22.297 -38.923  18.771  0.00  0.00     0.041 C 
ATOM     24  C   UNL d   1     -21.599 -37.579  18.967  0.00  0.00     0.270 C 
ATOM     25  N   UNL d   1     -22.539 -36.456  18.919  0.00  0.00     0.083 N 
ATOM     26  C   UNL d   1     -23.595 -36.607  19.927  0.00  0.00     0.270 C 
ATOM     27  H   UNL d   1     -22.966 -36.414  17.996  0.00  0.00     0.315 HD
ATOM     28  C   UNL d   1     -24.355 -37.928  19.783  0.00  0.00     0.041 C 
ENDBRANCH  19  22
ENDBRANCH   2  17
TORSDOF 3
ENDMDL
