@<TRIPOS>MOLECULE
*****
 42 45 0 0 0
SMALL
GASTEIGER

@<TRIPOS>ATOM
      1 C           3.7057    1.1204   -1.2031 C.3     1  UNL1        0.0790
      2 O           2.9256    0.0642   -0.6711 O.3     1  UNL1       -0.4914
      3 C           3.5251   -0.6711    0.3129 C.ar    1  UNL1        0.1618
      4 C           3.0271   -1.9847    0.4142 C.ar    1  UNL1       -0.0160
      5 C           4.4157   -0.2370    1.2787 C.ar    1  UNL1        0.1667
      6 C           3.4282   -2.8561    1.4405 C.ar    1  UNL1       -0.0534
      7 O           4.9114    1.0523    1.4805 O.3     1  UNL1       -0.4836
      8 C           4.7274   -1.0922    2.3534 C.ar    1  UNL1        0.0158
      9 C           4.3011   -2.4210    2.4438 C.ar    1  UNL1       -0.0255
     10 C           5.7953    0.9214    2.6344 C.3     1  UNL1        0.1161
     11 C           5.2048   -0.2302    3.4827 C.3     1  UNL1        0.0558
     12 C           4.5940   -3.3078    3.6376 C.3     1  UNL1        0.0242
     13 C           5.9295    2.1465    3.5709 C.3     1  UNL1        0.0151
     14 C           6.3800   -0.8247    4.2750 C.3     1  UNL1       -0.0235
     15 C           3.8942    0.3214    4.1493 C.2     1  UNL1       -0.0715
     16 N           5.9947   -3.2564    4.0806 N.3     1  UNL1       -0.3011
     17 C           4.5718    2.7173    3.9664 C.3     1  UNL1        0.0768
     18 C           6.2206   -2.1413    5.0018 C.3     1  UNL1        0.0001
     19 C           3.5966    1.6311    4.1993 C.2     1  UNL1       -0.0588
     20 C           6.4106   -4.5056    4.7257 C.3     1  UNL1       -0.0124
     21 O           4.6891    3.4153    5.2125 O.3     1  UNL1       -0.3876
     22 H           3.1331    1.5573   -2.0273 H       1  UNL1        0.0660
     23 H           4.6455    0.7373   -1.6113 H       1  UNL1        0.0660
     24 H           3.8729    1.9176   -0.4765 H       1  UNL1        0.0660
     25 H           2.2867   -2.3319   -0.3036 H       1  UNL1        0.0655
     26 H           2.9984   -3.8534    1.4855 H       1  UNL1        0.0622
     27 H           6.7910    0.6804    2.2341 H       1  UNL1        0.0746
     28 H           4.3612   -4.3353    3.3345 H       1  UNL1        0.0476
     29 H           3.9007   -3.0655    4.4527 H       1  UNL1        0.0476
     30 H           6.4511    1.8512    4.4939 H       1  UNL1        0.0329
     31 H           6.5805    2.9184    3.1498 H       1  UNL1        0.0329
     32 H           7.2149   -0.9774    3.5711 H       1  UNL1        0.0290
     33 H           6.7540   -0.1026    5.0076 H       1  UNL1        0.0290
     34 H           3.0578   -0.3766    4.2032 H       1  UNL1        0.0580
     35 H           4.2471    3.4339    3.2128 H       1  UNL1        0.0639
     36 H           7.1857   -2.2992    5.5094 H       1  UNL1        0.0427
     37 H           5.4669   -2.0812    5.7942 H       1  UNL1        0.0427
     38 H           2.5390    1.9386    4.2819 H       1  UNL1        0.0595
     39 H           7.4934   -4.4931    4.9039 H       1  UNL1        0.0391
     40 H           6.2240   -5.3689    4.0808 H       1  UNL1        0.0391
     41 H           5.9088   -4.6660    5.6864 H       1  UNL1        0.0391
     42 H           3.9498    3.1461    5.7921 H       1  UNL1        0.2102
@<TRIPOS>BOND
     1    20    16    1
     2    16    18    1
     3    18    14    1
     4    14    11    1
     5    11    15    1
     6    15    19    2
     7    19    17    1
     8    17    13    1
     9    13    10    1
    10    11    10    1
    11    10     7    1
    12     7     5    1
    13     5     3   ar
    14     3     4   ar
    15     4     6   ar
    16     6     9   ar
    17     9     8   ar
    18    11     8    1
    19     5     8   ar
    20     9    12    1
    21    16    12    1
    22     3     2    1
    23     2     1    1
    24    17    21    1
    25     1    22    1
    26     1    23    1
    27     1    24    1
    28     4    25    1
    29     6    26    1
    30    10    27    1
    31    12    28    1
    32    12    29    1
    33    13    30    1
    34    13    31    1
    35    14    32    1
    36    14    33    1
    37    15    34    1
    38    17    35    1
    39    18    36    1
    40    18    37    1
    41    19    38    1
    42    20    39    1
    43    20    40    1
    44    20    41    1
    45    21    42    1
