REMARK  2 active torsions:
REMARK  status: ('A' for Active; 'I' for Inactive)
REMARK    1  A    between atoms: C_3  and  O_2 
REMARK    2  A    between atoms: C_17  and  O_21 
ROOT
ATOM      1  C   UNL d   1       3.525  -0.671   0.313  0.00  0.00     0.102 A 
ATOM      2  C   UNL d   1       3.027  -1.985   0.414  0.00  0.00     0.040 A 
ATOM      3  C   UNL d   1       4.416  -0.237   1.279  0.00  0.00     0.110 A 
ATOM      4  C   UNL d   1       3.428  -2.856   1.440  0.00  0.00     0.012 A 
ATOM      5  O   UNL d   1       4.911   1.052   1.480  0.00  0.00    -0.341 OA
ATOM      6  C   UNL d   1       4.727  -1.092   2.353  0.00  0.00     0.001 A 
ATOM      7  C   UNL d   1       4.301  -2.421   2.444  0.00  0.00    -0.020 A 
ATOM      8  C   UNL d   1       5.795   0.921   2.634  0.00  0.00     0.148 C 
ATOM      9  C   UNL d   1       5.205  -0.230   3.483  0.00  0.00     0.036 C 
ATOM     10  C   UNL d   1       4.594  -3.308   3.638  0.00  0.00     0.311 C 
ATOM     11  C   UNL d   1       5.929   2.147   3.571  0.00  0.00     0.069 C 
ATOM     12  C   UNL d   1       6.380  -0.825   4.275  0.00  0.00     0.051 C 
ATOM     13  C   UNL d   1       3.894   0.321   4.149  0.00  0.00    -0.011 C 
ATOM     14  N   UNL d   1       5.995  -3.256   4.081  0.00  0.00     0.088 N 
ATOM     15  C   UNL d   1       4.572   2.717   3.966  0.00  0.00     0.143 C 
ATOM     16  C   UNL d   1       6.221  -2.141   5.002  0.00  0.00     0.273 C 
ATOM     17  C   UNL d   1       3.597   1.631   4.199  0.00  0.00     0.002 C 
ATOM     18  C   UNL d   1       6.411  -4.506   4.726  0.00  0.00     0.310 C 
ENDROOT
BRANCH   1  19
ATOM     19  O   UNL d   1       2.926   0.064  -0.671  0.00  0.00    -0.353 OA
ATOM     20  C   UNL d   1       3.706   1.120  -1.203  0.00  0.00     0.210 C 
ENDBRANCH   1  19
BRANCH  15  21
ATOM     21  O   UNL d   1       4.689   3.415   5.213  0.00  0.00    -0.392 OA
ATOM     22  H   UNL d   1       3.950   3.146   5.792  0.00  0.00     0.210 HD
ENDBRANCH  15  21
TORSDOF 2
