@<TRIPOS>MOLECULE
*****
 36 38 0 0 0
SMALL
GASTEIGER

@<TRIPOS>ATOM
      1 C           1.4215   -0.6381   -1.3318 C.3     1  UNL1       -0.0465
      2 C           2.8238   -0.8802   -0.8282 C.2     1  UNL1       -0.0852
      3 C           3.1236   -1.3516    0.4127 C.2     1  UNL1       -0.0422
      4 C           3.8531   -0.3367    1.2898 C.3     1  UNL1        0.0058
      5 C           2.3193   -2.3010    1.3344 C.3     1  UNL1        0.0694
      6 C           2.7480    0.4386    2.0315 C.2     1  UNL1       -0.0774
      7 C           4.8602   -1.0199    2.2230 C.3     1  UNL1       -0.0020
      8 N           2.0086   -3.5435    0.6147 N.3     1  UNL1       -0.3174
      9 C           1.0813   -1.4662    1.7712 C.3     1  UNL1       -0.0057
     10 C           3.0554   -2.6759    2.6636 C.ar    1  UNL1       -0.0038
     11 C           1.4867   -0.0425    2.1978 C.2     1  UNL1       -0.0736
     12 C           4.1803   -2.0521    3.0758 C.ar    1  UNL1        0.0252
     13 C           2.3725   -3.5497    3.6197 C.ar    1  UNL1       -0.0497
     14 C           0.3738    0.7707    2.7752 C.3     1  UNL1       -0.0437
     15 N           4.6266   -2.1907    4.3715 N.ar    1  UNL1       -0.3259
     16 C           2.7430   -3.6057    4.9054 C.ar    1  UNL1        0.0031
     17 C           3.9401   -2.8420    5.3525 C.ar    1  UNL1        0.2489
     18 O           4.2788   -2.8416    6.5347 O.2     1  UNL1       -0.2679
     19 H           1.4550    0.0140   -2.2127 H       1  UNL1        0.0272
     20 H           0.8500   -0.0543   -0.5975 H       1  UNL1        0.0272
     21 H           0.8796   -1.5471   -1.5853 H       1  UNL1        0.0272
     22 H           3.5065   -0.1491   -1.2670 H       1  UNL1        0.0570
     23 H           4.4090    0.3803    0.6696 H       1  UNL1        0.0392
     24 H           3.0045    1.4414    2.3586 H       1  UNL1        0.0578
     25 H           5.3377   -0.2554    2.8488 H       1  UNL1        0.0336
     26 H           5.6569   -1.5048    1.6440 H       1  UNL1        0.0336
     27 H           2.8873   -4.0554    0.4863 H       1  UNL1        0.1193
     28 H           1.7018   -3.3080   -0.3300 H       1  UNL1        0.1193
     29 H           0.5454   -1.9496    2.5986 H       1  UNL1        0.0334
     30 H           0.3445   -1.4172    0.9620 H       1  UNL1        0.0334
     31 H           1.5034   -4.1013    3.2766 H       1  UNL1        0.0623
     32 H           0.0006    0.3053    3.6916 H       1  UNL1        0.0274
     33 H          -0.4477    0.8266    2.0527 H       1  UNL1        0.0274
     34 H           0.6901    1.7908    3.0036 H       1  UNL1        0.0274
     35 H           5.4169   -1.6523    4.6986 H       1  UNL1        0.1686
     36 H           2.2025   -4.1729    5.6547 H       1  UNL1        0.0672
@<TRIPOS>BOND
     1     1     2    1
     2     2     3    2
     3     3     4    1
     4     4     7    1
     5     7    12    1
     6    12    10   ar
     7    10     5    1
     8     3     5    1
     9     5     9    1
    10     9    11    1
    11    11     6    2
    12     4     6    1
    13    11    14    1
    14     5     8    1
    15    10    13   ar
    16    13    16   ar
    17    16    17   ar
    18    17    18    2
    19    17    15   ar
    20    12    15   ar
    21     1    19    1
    22     1    20    1
    23     1    21    1
    24     2    22    1
    25     4    23    1
    26     6    24    1
    27     7    25    1
    28     7    26    1
    29     8    27    1
    30     8    28    1
    31     9    29    1
    32     9    30    1
    33    13    31    1
    34    14    32    1
    35    14    33    1
    36    14    34    1
    37    15    35    1
    38    16    36    1
