REMARK  1 active torsions:
REMARK  status: ('A' for Active; 'I' for Inactive)
REMARK    1  A    between atoms: C_5  and  N_8 
ROOT
ATOM      1  C   UNL d   1       1.421  -0.638  -1.332  0.00  0.00     0.036 C 
ATOM      2  C   UNL d   1       2.824  -0.880  -0.828  0.00  0.00    -0.025 C 
ATOM      3  C   UNL d   1       3.124  -1.352   0.413  0.00  0.00    -0.033 C 
ATOM      4  C   UNL d   1       3.853  -0.337   1.290  0.00  0.00     0.045 C 
ATOM      5  C   UNL d   1       2.319  -2.301   1.334  0.00  0.00     0.211 C 
ATOM      6  C   UNL d   1       2.748   0.439   2.031  0.00  0.00    -0.015 C 
ATOM      7  C   UNL d   1       4.860  -1.020   2.223  0.00  0.00     0.070 C 
ATOM      8  C   UNL d   1       1.081  -1.466   1.771  0.00  0.00     0.084 C 
ATOM      9  C   UNL d   1       3.055  -2.676   2.664  0.00  0.00     0.007 C 
ATOM     10  C   UNL d   1       1.487  -0.043   2.198  0.00  0.00    -0.084 C 
ATOM     11  C   UNL d   1       4.180  -2.052   3.076  0.00  0.00     0.022 C 
ATOM     12  C   UNL d   1       2.373  -3.550   3.620  0.00  0.00     0.017 C 
ATOM     13  C   UNL d   1       0.374   0.771   2.775  0.00  0.00     0.043 C 
ATOM     14  N   UNL d   1       4.627  -2.191   4.372  0.00  0.00    -0.327 N 
ATOM     15  C   UNL d   1       2.743  -3.606   4.905  0.00  0.00     0.075 C 
ATOM     16  C   UNL d   1       3.940  -2.842   5.353  0.00  0.00     0.245 C 
ATOM     17  O   UNL d   1       4.279  -2.842   6.535  0.00  0.00    -0.268 OA
ATOM     18  H   UNL d   1       5.417  -1.652   4.699  0.00  0.00     0.169 HD
ENDROOT
BRANCH   5  19
ATOM     19  N   UNL d   1       2.009  -3.543   0.615  0.00  0.00     0.097 N 
ATOM     20  H   UNL d   1       2.887  -4.055   0.486  0.00  0.00     0.314 HD
ATOM     21  H   UNL d   1       1.702  -3.308  -0.330  0.00  0.00     0.314 HD
ENDBRANCH   5  19
TORSDOF 1
