@<TRIPOS>MOLECULE
*****
 57 60 0 0 0
SMALL
GASTEIGER

@<TRIPOS>ATOM
      1 C          10.6672   -2.3267   -1.0174 C.3     1  UNL1        0.0790
      2 O           9.5000   -2.7696   -1.6989 O.3     1  UNL1       -0.4914
      3 C           8.5679   -3.4742   -0.9848 C.ar    1  UNL1        0.1622
      4 C           8.4751   -3.3841    0.4101 C.ar    1  UNL1       -0.0056
      5 C           7.6245   -4.2718   -1.6865 C.ar    1  UNL1        0.1618
      6 C           7.4867   -4.1046    1.0569 C.ar    1  UNL1        0.0246
      7 O           7.5184   -4.4492   -3.0459 O.3     1  UNL1       -0.4914
      8 C           6.6449   -5.0105   -0.9725 C.ar    1  UNL1       -0.0124
      9 C           6.5829   -4.9265    0.4118 C.ar    1  UNL1       -0.0325
     10 C           7.2126   -4.1447    2.4815 C.2     1  UNL1        0.1669
     11 C           8.3091   -3.6330   -3.9008 C.3     1  UNL1        0.0790
     12 C           5.6088   -5.5532    1.3766 C.3     1  UNL1       -0.0170
     13 O           7.7512   -3.3971    3.2796 O.2     1  UNL1       -0.2917
     14 C           6.2066   -5.2504    2.7754 C.3     1  UNL1        0.0264
     15 C           5.2392   -4.7876    3.8773 C.3     1  UNL1       -0.0399
     16 C           4.4244   -5.8801    4.6081 C.3     1  UNL1       -0.0381
     17 C           3.3175   -6.5440    3.7937 C.3     1  UNL1       -0.0373
     18 C           3.7520   -5.3075    5.8690 C.3     1  UNL1       -0.0373
     19 C           2.1391   -5.6105    3.4973 C.3     1  UNL1       -0.0005
     20 C           2.6488   -4.2984    5.5367 C.3     1  UNL1       -0.0005
     21 N           1.6167   -4.8056    4.6185 N.3     1  UNL1       -0.2981
     22 C           0.8272   -3.6889    4.0367 C.3     1  UNL1        0.0240
     23 C           0.0908   -2.7842    5.0025 C.ar    1  UNL1       -0.0334
     24 C           0.4409   -1.4269    5.1103 C.ar    1  UNL1       -0.0573
     25 C          -1.0066   -3.2544    5.7346 C.ar    1  UNL1       -0.0573
     26 C          -0.2940   -0.5603    5.9228 C.ar    1  UNL1       -0.0615
     27 C          -1.7441   -2.3849    6.5435 C.ar    1  UNL1       -0.0615
     28 C          -1.3899   -1.0394    6.6360 C.ar    1  UNL1       -0.0617
     29 H          11.2822   -1.7813   -1.7402 H       1  UNL1        0.0660
     30 H          11.2497   -3.1791   -0.6530 H       1  UNL1        0.0660
     31 H          10.4330   -1.6276   -0.2093 H       1  UNL1        0.0660
     32 H           9.1346   -2.7714    1.0111 H       1  UNL1        0.0662
     33 H           5.9368   -5.6260   -1.5241 H       1  UNL1        0.0658
     34 H           7.9759   -3.8030   -4.9295 H       1  UNL1        0.0660
     35 H           9.3600   -3.9237   -3.8493 H       1  UNL1        0.0660
     36 H           8.1678   -2.5659   -3.6962 H       1  UNL1        0.0660
     37 H           5.5285   -6.6319    1.2089 H       1  UNL1        0.0320
     38 H           4.6219   -5.0925    1.2462 H       1  UNL1        0.0320
     39 H           6.7902   -6.1135    3.1194 H       1  UNL1        0.0384
     40 H           4.5918   -3.9928    3.4909 H       1  UNL1        0.0275
     41 H           5.8526   -4.3083    4.6547 H       1  UNL1        0.0275
     42 H           5.1288   -6.6590    4.9277 H       1  UNL1        0.0302
     43 H           3.7123   -6.9425    2.8544 H       1  UNL1        0.0280
     44 H           2.9453   -7.4125    4.3546 H       1  UNL1        0.0280
     45 H           4.5001   -4.8257    6.5108 H       1  UNL1        0.0280
     46 H           3.3287   -6.1312    6.4596 H       1  UNL1        0.0280
     47 H           2.4317   -4.9681    2.6590 H       1  UNL1        0.0427
     48 H           1.3132   -6.2380    3.1337 H       1  UNL1        0.0427
     49 H           3.1095   -3.3865    5.1451 H       1  UNL1        0.0427
     50 H           2.1626   -4.0249    6.4837 H       1  UNL1        0.0427
     51 H           0.0685   -4.1019    3.3577 H       1  UNL1        0.0476
     52 H           1.4829   -3.0687    3.4083 H       1  UNL1        0.0476
     53 H           1.2811   -1.0294    4.5451 H       1  UNL1        0.0621
     54 H          -1.3015   -4.2983    5.6591 H       1  UNL1        0.0621
     55 H          -0.0185    0.4895    5.9885 H       1  UNL1        0.0618
     56 H          -2.6038   -2.7567    7.0946 H       1  UNL1        0.0618
     57 H          -1.9708   -0.3642    7.2593 H       1  UNL1        0.0618
@<TRIPOS>BOND
     1    11     7    1
     2     7     5    1
     3     5     3   ar
     4     3     4   ar
     5     4     6   ar
     6     6     9   ar
     7     9     8   ar
     8     5     8   ar
     9     9    12    1
    10    12    14    1
    11    14    10    1
    12     6    10    1
    13    10    13    2
    14    14    15    1
    15    15    16    1
    16    16    18    1
    17    18    20    1
    18    20    21    1
    19    21    19    1
    20    19    17    1
    21    16    17    1
    22    21    22    1
    23    22    23    1
    24    23    24   ar
    25    24    26   ar
    26    26    28   ar
    27    28    27   ar
    28    27    25   ar
    29    23    25   ar
    30     3     2    1
    31     2     1    1
    32     1    29    1
    33     1    30    1
    34     1    31    1
    35     4    32    1
    36     8    33    1
    37    11    34    1
    38    11    35    1
    39    11    36    1
    40    12    37    1
    41    12    38    1
    42    14    39    1
    43    15    40    1
    44    15    41    1
    45    16    42    1
    46    17    43    1
    47    17    44    1
    48    18    45    1
    49    18    46    1
    50    19    47    1
    51    19    48    1
    52    20    49    1
    53    20    50    1
    54    22    51    1
    55    22    52    1
    56    24    53    1
    57    25    54    1
    58    26    55    1
    59    27    56    1
    60    28    57    1
