REMARK  6 active torsions:
REMARK  status: ('A' for Active; 'I' for Inactive)
REMARK    1  A    between atoms: C_3  and  O_2 
REMARK    2  A    between atoms: O_7  and  C_5 
REMARK    3  A    between atoms: C_14  and  C_15 
REMARK    4  A    between atoms: C_15  and  C_16 
REMARK    5  A    between atoms: N_21  and  C_22 
REMARK    6  A    between atoms: C_22  and  C_23 
ROOT
ATOM      1  C   UNL d   1       8.568  -3.474  -0.985  0.00  0.00     0.102 A 
ATOM      2  C   UNL d   1       8.475  -3.384   0.410  0.00  0.00     0.055 A 
ATOM      3  C   UNL d   1       7.625  -4.272  -1.687  0.00  0.00     0.102 A 
ATOM      4  C   UNL d   1       7.487  -4.105   1.057  0.00  0.00     0.019 A 
ATOM      5  C   UNL d   1       6.645  -5.011  -0.973  0.00  0.00     0.047 A 
ATOM      6  C   UNL d   1       6.583  -4.926   0.412  0.00  0.00    -0.041 A 
ATOM      7  C   UNL d   1       7.213  -4.145   2.482  0.00  0.00     0.164 C 
ATOM      8  C   UNL d   1       5.609  -5.553   1.377  0.00  0.00     0.052 C 
ATOM      9  O   UNL d   1       7.751  -3.397   3.280  0.00  0.00    -0.292 OA
ATOM     10  C   UNL d   1       6.207  -5.250   2.775  0.00  0.00     0.065 C 
ENDROOT
BRANCH  10  11
ATOM     11  C   UNL d   1       5.239  -4.788   3.877  0.00  0.00     0.017 C 
BRANCH  11  12
ATOM     12  C   UNL d   1       4.424  -5.880   4.608  0.00  0.00    -0.010 C 
ATOM     13  C   UNL d   1       3.752  -5.308   5.869  0.00  0.00     0.035 C 
ATOM     14  C   UNL d   1       2.649  -4.298   5.537  0.00  0.00     0.273 C 
ATOM     15  N   UNL d   1       1.617  -4.806   4.619  0.00  0.00     0.092 N 
ATOM     16  C   UNL d   1       2.139  -5.611   3.497  0.00  0.00     0.273 C 
ATOM     17  C   UNL d   1       3.317  -6.544   3.794  0.00  0.00     0.035 C 
BRANCH  15  18
ATOM     18  C   UNL d   1       0.827  -3.689   4.037  0.00  0.00     0.311 C 
BRANCH  18  19
ATOM     19  C   UNL d   1       0.091  -2.784   5.003  0.00  0.00    -0.030 A 
ATOM     20  C   UNL d   1       0.441  -1.427   5.110  0.00  0.00     0.009 A 
ATOM     21  C   UNL d   1      -0.294  -0.560   5.923  0.00  0.00     0.001 A 
ATOM     22  C   UNL d   1      -1.390  -1.039   6.636  0.00  0.00     0.000 A 
ATOM     23  C   UNL d   1      -1.744  -2.385   6.543  0.00  0.00     0.001 A 
ATOM     24  C   UNL d   1      -1.007  -3.254   5.735  0.00  0.00     0.009 A 
ENDBRANCH  18  19
ENDBRANCH  15  18
ENDBRANCH  11  12
ENDBRANCH  10  11
BRANCH   3  25
ATOM     25  O   UNL d   1       7.518  -4.449  -3.046  0.00  0.00    -0.353 OA
ATOM     26  C   UNL d   1       8.309  -3.633  -3.901  0.00  0.00     0.210 C 
ENDBRANCH   3  25
BRANCH   1  27
ATOM     27  O   UNL d   1       9.500  -2.770  -1.699  0.00  0.00    -0.353 OA
ATOM     28  C   UNL d   1      10.667  -2.327  -1.017  0.00  0.00     0.210 C 
ENDBRANCH   1  27
TORSDOF 6
