MODEL 1
REMARK VINA RESULT:   -11.391      0.000      0.000
REMARK INTER + INTRA:         -16.315
REMARK INTER:                 -15.596
REMARK INTRA:                  -0.719
REMARK UNBOUND:                -0.928
REMARK  6 active torsions:
REMARK  status: ('A' for Active; 'I' for Inactive)
REMARK    1  A    between atoms: C_3  and  O_2 
REMARK    2  A    between atoms: O_7  and  C_5 
REMARK    3  A    between atoms: C_14  and  C_15 
REMARK    4  A    between atoms: C_15  and  C_16 
REMARK    5  A    between atoms: N_21  and  C_22 
REMARK    6  A    between atoms: C_22  and  C_23 
ROOT
ATOM      1  C   UNL d   1     -10.363 -42.532  33.305  0.00  0.00     0.102 A 
ATOM      2  C   UNL d   1     -11.577 -42.927  32.728  0.00  0.00     0.055 A 
ATOM      3  C   UNL d   1      -9.197 -43.303  33.050  0.00  0.00     0.102 A 
ATOM      4  C   UNL d   1     -11.602 -44.077  31.958  0.00  0.00     0.019 A 
ATOM      5  C   UNL d   1      -9.282 -44.488  32.272  0.00  0.00     0.047 A 
ATOM      6  C   UNL d   1     -10.500 -44.876  31.727  0.00  0.00    -0.041 A 
ATOM      7  C   UNL d   1     -12.743 -44.653  31.269  0.00  0.00     0.164 C 
ATOM      8  C   UNL d   1     -10.830 -46.039  30.827  0.00  0.00     0.052 C 
ATOM      9  O   UNL d   1     -13.812 -44.077  31.165  0.00  0.00    -0.292 OA
ATOM     10  C   UNL d   1     -12.379 -46.039  30.754  0.00  0.00     0.065 C 
ENDROOT
BRANCH  10  11
ATOM     11  C   UNL d   1     -13.025 -46.265  29.378  0.00  0.00     0.017 C 
BRANCH  11  12
ATOM     12  C   UNL d   1     -12.113 -46.136  28.136  0.00  0.00    -0.010 C 
ATOM     13  C   UNL d   1     -12.921 -46.335  26.841  0.00  0.00     0.035 C 
ATOM     14  C   UNL d   1     -13.913 -45.195  26.590  0.00  0.00     0.273 C 
ATOM     15  N   UNL d   1     -13.309 -43.853  26.590  0.00  0.00     0.092 N 
ATOM     16  C   UNL d   1     -12.302 -43.635  27.648  0.00  0.00     0.273 C 
ATOM     17  C   UNL d   1     -11.376 -44.808  27.984  0.00  0.00     0.035 C 
BRANCH  15  18
ATOM     18  C   UNL d   1     -14.349 -42.801  26.742  0.00  0.00     0.311 C 
BRANCH  18  19
ATOM     19  C   UNL d   1     -15.424 -42.731  25.677  0.00  0.00    -0.030 A 
ATOM     20  C   UNL d   1     -16.782 -42.732  26.039  0.00  0.00     0.009 A 
ATOM     21  C   UNL d   1     -17.780 -42.568  25.074  0.00  0.00     0.001 A 
ATOM     22  C   UNL d   1     -17.432 -42.398  23.737  0.00  0.00     0.000 A 
ATOM     23  C   UNL d   1     -16.087 -42.401  23.364  0.00  0.00     0.001 A 
ATOM     24  C   UNL d   1     -15.089 -42.571  24.326  0.00  0.00     0.009 A 
ENDBRANCH  18  19
ENDBRANCH  15  18
ENDBRANCH  11  12
ENDBRANCH  10  11
BRANCH   3  25
ATOM     25  O   UNL d   1      -7.915 -43.057  33.479  0.00  0.00    -0.353 OA
ATOM     26  C   UNL d   1      -6.833 -43.605  32.735  0.00  0.00     0.210 C 
ENDBRANCH   3  25
BRANCH   1  27
ATOM     27  O   UNL d   1     -10.251 -41.393  34.056  0.00  0.00    -0.353 OA
ATOM     28  C   UNL d   1     -10.150 -41.532  35.467  0.00  0.00     0.210 C 
ENDBRANCH   1  27
TORSDOF 6
ENDMDL
MODEL 2
REMARK VINA RESULT:   -11.168      3.136      9.553
REMARK INTER + INTRA:         -16.014
REMARK INTER:                 -15.303
REMARK INTRA:                  -0.710
REMARK UNBOUND:                -0.928
REMARK  6 active torsions:
REMARK  status: ('A' for Active; 'I' for Inactive)
REMARK    1  A    between atoms: C_3  and  O_2 
REMARK    2  A    between atoms: O_7  and  C_5 
REMARK    3  A    between atoms: C_14  and  C_15 
REMARK    4  A    between atoms: C_15  and  C_16 
REMARK    5  A    between atoms: N_21  and  C_22 
REMARK    6  A    between atoms: C_22  and  C_23 
ROOT
ATOM      1  C   UNL d   1     -19.435 -41.775  25.541  0.00  0.00     0.102 A 
ATOM      2  C   UNL d   1     -18.667 -41.961  26.698  0.00  0.00     0.055 A 
ATOM      3  C   UNL d   1     -18.900 -42.176  24.287  0.00  0.00     0.102 A 
ATOM      4  C   UNL d   1     -17.398 -42.499  26.572  0.00  0.00     0.019 A 
ATOM      5  C   UNL d   1     -17.583 -42.701  24.211  0.00  0.00     0.047 A 
ATOM      6  C   UNL d   1     -16.828 -42.858  25.366  0.00  0.00    -0.041 A 
ATOM      7  C   UNL d   1     -16.450 -42.781  27.634  0.00  0.00     0.164 C 
ATOM      8  C   UNL d   1     -15.451 -43.444  25.551  0.00  0.00     0.052 C 
ATOM      9  O   UNL d   1     -16.741 -42.713  28.816  0.00  0.00    -0.292 OA
ATOM     10  C   UNL d   1     -15.098 -43.132  27.028  0.00  0.00     0.065 C 
ENDROOT
BRANCH  10  11
ATOM     11  C   UNL d   1     -14.437 -44.250  27.851  0.00  0.00     0.017 C 
BRANCH  11  12
ATOM     12  C   UNL d   1     -13.107 -44.831  27.319  0.00  0.00    -0.010 C 
ATOM     13  C   UNL d   1     -11.938 -43.871  27.603  0.00  0.00     0.035 C 
ATOM     14  C   UNL d   1     -11.625 -43.757  29.098  0.00  0.00     0.273 C 
ATOM     15  N   UNL d   1     -11.375 -45.045  29.766  0.00  0.00     0.092 N 
ATOM     16  C   UNL d   1     -12.288 -46.131  29.360  0.00  0.00     0.273 C 
ATOM     17  C   UNL d   1     -12.697 -46.188  27.885  0.00  0.00     0.035 C 
BRANCH  15  18
ATOM     18  C   UNL d   1     -11.476 -44.905  31.243  0.00  0.00     0.311 C 
BRANCH  18  19
ATOM     19  C   UNL d   1     -10.275 -44.334  31.968  0.00  0.00    -0.030 A 
ATOM     20  C   UNL d   1      -8.977 -44.754  31.631  0.00  0.00     0.009 A 
ATOM     21  C   UNL d   1      -7.857 -44.163  32.222  0.00  0.00     0.001 A 
ATOM     22  C   UNL d   1      -8.022 -43.143  33.155  0.00  0.00     0.000 A 
ATOM     23  C   UNL d   1      -9.305 -42.721  33.502  0.00  0.00     0.001 A 
ATOM     24  C   UNL d   1     -10.425 -43.314  32.916  0.00  0.00     0.009 A 
ENDBRANCH  18  19
ENDBRANCH  15  18
ENDBRANCH  11  12
ENDBRANCH  10  11
BRANCH   3  25
ATOM     25  O   UNL d   1     -19.508 -42.123  23.056  0.00  0.00    -0.353 OA
ATOM     26  C   UNL d   1     -19.559 -40.874  22.378  0.00  0.00     0.210 C 
ENDBRANCH   3  25
BRANCH   1  27
ATOM     27  O   UNL d   1     -20.709 -41.274  25.586  0.00  0.00    -0.353 OA
ATOM     28  C   UNL d   1     -21.284 -41.030  26.864  0.00  0.00     0.210 C 
ENDBRANCH   1  27
TORSDOF 6
ENDMDL
MODEL 3
REMARK VINA RESULT:   -10.566      3.194      9.132
REMARK INTER + INTRA:         -15.200
REMARK INTER:                 -14.657
REMARK INTRA:                  -0.544
REMARK UNBOUND:                -0.928
REMARK  6 active torsions:
REMARK  status: ('A' for Active; 'I' for Inactive)
REMARK    1  A    between atoms: C_3  and  O_2 
REMARK    2  A    between atoms: O_7  and  C_5 
REMARK    3  A    between atoms: C_14  and  C_15 
REMARK    4  A    between atoms: C_15  and  C_16 
REMARK    5  A    between atoms: N_21  and  C_22 
REMARK    6  A    between atoms: C_22  and  C_23 
ROOT
ATOM      1  C   UNL d   1     -19.620 -41.719  25.559  0.00  0.00     0.102 A 
ATOM      2  C   UNL d   1     -18.825 -41.933  26.693  0.00  0.00     0.055 A 
ATOM      3  C   UNL d   1     -19.085 -42.020  24.278  0.00  0.00     0.102 A 
ATOM      4  C   UNL d   1     -17.534 -42.399  26.520  0.00  0.00     0.019 A 
ATOM      5  C   UNL d   1     -17.745 -42.474  24.153  0.00  0.00     0.047 A 
ATOM      6  C   UNL d   1     -16.966 -42.659  25.288  0.00  0.00    -0.041 A 
ATOM      7  C   UNL d   1     -16.556 -42.694  27.551  0.00  0.00     0.164 C 
ATOM      8  C   UNL d   1     -15.559 -43.185  25.420  0.00  0.00     0.052 C 
ATOM      9  O   UNL d   1     -16.831 -42.708  28.738  0.00  0.00    -0.292 OA
ATOM     10  C   UNL d   1     -15.198 -42.941  26.908  0.00  0.00     0.065 C 
ENDROOT
BRANCH  10  11
ATOM     11  C   UNL d   1     -14.470 -44.070  27.656  0.00  0.00     0.017 C 
BRANCH  11  12
ATOM     12  C   UNL d   1     -13.122 -44.553  27.073  0.00  0.00    -0.010 C 
ATOM     13  C   UNL d   1     -11.946 -43.797  27.716  0.00  0.00     0.035 C 
ATOM     14  C   UNL d   1     -11.763 -44.149  29.195  0.00  0.00     0.273 C 
ATOM     15  N   UNL d   1     -11.625 -45.589  29.464  0.00  0.00     0.092 N 
ATOM     16  C   UNL d   1     -12.540 -46.447  28.686  0.00  0.00     0.273 C 
ATOM     17  C   UNL d   1     -12.818 -46.040  27.236  0.00  0.00     0.035 C 
BRANCH  15  18
ATOM     18  C   UNL d   1     -11.851 -45.885  30.904  0.00  0.00     0.311 C 
BRANCH  18  19
ATOM     19  C   UNL d   1     -12.328 -44.745  31.779  0.00  0.00    -0.030 A 
ATOM     20  C   UNL d   1     -11.405 -43.839  32.329  0.00  0.00     0.009 A 
ATOM     21  C   UNL d   1     -11.840 -42.727  33.055  0.00  0.00     0.001 A 
ATOM     22  C   UNL d   1     -13.203 -42.506  33.237  0.00  0.00     0.000 A 
ATOM     23  C   UNL d   1     -14.129 -43.401  32.701  0.00  0.00     0.001 A 
ATOM     24  C   UNL d   1     -13.696 -44.516  31.979  0.00  0.00     0.009 A 
ENDBRANCH  18  19
ENDBRANCH  15  18
ENDBRANCH  11  12
ENDBRANCH  10  11
BRANCH   3  25
ATOM     25  O   UNL d   1     -19.715 -41.927  23.060  0.00  0.00    -0.353 OA
ATOM     26  C   UNL d   1     -19.081 -41.189  22.022  0.00  0.00     0.210 C 
ENDBRANCH   3  25
BRANCH   1  27
ATOM     27  O   UNL d   1     -20.915 -41.286  25.650  0.00  0.00    -0.353 OA
ATOM     28  C   UNL d   1     -21.412 -40.934  26.936  0.00  0.00     0.210 C 
ENDBRANCH   1  27
TORSDOF 6
ENDMDL
MODEL 4
REMARK VINA RESULT:   -10.466      3.431      9.626
REMARK INTER + INTRA:         -15.065
REMARK INTER:                 -14.514
REMARK INTRA:                  -0.551
REMARK UNBOUND:                -0.928
REMARK  6 active torsions:
REMARK  status: ('A' for Active; 'I' for Inactive)
REMARK    1  A    between atoms: C_3  and  O_2 
REMARK    2  A    between atoms: O_7  and  C_5 
REMARK    3  A    between atoms: C_14  and  C_15 
REMARK    4  A    between atoms: C_15  and  C_16 
REMARK    5  A    between atoms: N_21  and  C_22 
REMARK    6  A    between atoms: C_22  and  C_23 
ROOT
ATOM      1  C   UNL d   1     -18.141 -42.104  23.814  0.00  0.00     0.102 A 
ATOM      2  C   UNL d   1     -16.809 -42.536  23.838  0.00  0.00     0.055 A 
ATOM      3  C   UNL d   1     -18.838 -41.954  25.043  0.00  0.00     0.102 A 
ATOM      4  C   UNL d   1     -16.230 -42.836  25.058  0.00  0.00     0.019 A 
ATOM      5  C   UNL d   1     -18.205 -42.298  26.267  0.00  0.00     0.047 A 
ATOM      6  C   UNL d   1     -16.891 -42.746  26.268  0.00  0.00    -0.041 A 
ATOM      7  C   UNL d   1     -14.873 -43.287  25.305  0.00  0.00     0.164 C 
ATOM      8  C   UNL d   1     -15.992 -43.106  27.424  0.00  0.00     0.052 C 
ATOM      9  O   UNL d   1     -14.015 -43.305  24.439  0.00  0.00    -0.292 OA
ATOM     10  C   UNL d   1     -14.740 -43.731  26.755  0.00  0.00     0.065 C 
ENDROOT
BRANCH  10  11
ATOM     11  C   UNL d   1     -13.363 -43.316  27.299  0.00  0.00     0.017 C 
BRANCH  11  12
ATOM     12  C   UNL d   1     -12.309 -44.433  27.486  0.00  0.00    -0.010 C 
ATOM     13  C   UNL d   1     -10.974 -43.847  27.977  0.00  0.00     0.035 C 
ATOM     14  C   UNL d   1     -11.067 -43.295  29.404  0.00  0.00     0.273 C 
ATOM     15  N   UNL d   1     -11.574 -44.257  30.395  0.00  0.00     0.092 N 
ATOM     16  C   UNL d   1     -12.708 -45.078  29.925  0.00  0.00     0.273 C 
ATOM     17  C   UNL d   1     -12.679 -45.542  28.466  0.00  0.00     0.035 C 
BRANCH  15  18
ATOM     18  C   UNL d   1     -12.009 -43.563  31.635  0.00  0.00     0.311 C 
BRANCH  18  19
ATOM     19  C   UNL d   1     -10.924 -43.055  32.562  0.00  0.00    -0.030 A 
ATOM     20  C   UNL d   1     -11.254 -42.251  33.667  0.00  0.00     0.009 A 
ATOM     21  C   UNL d   1     -10.276 -41.859  34.584  0.00  0.00     0.001 A 
ATOM     22  C   UNL d   1      -8.956 -42.268  34.409  0.00  0.00     0.000 A 
ATOM     23  C   UNL d   1      -8.615 -43.061  33.313  0.00  0.00     0.001 A 
ATOM     24  C   UNL d   1      -9.591 -43.450  32.393  0.00  0.00     0.009 A 
ENDBRANCH  18  19
ENDBRANCH  15  18
ENDBRANCH  11  12
ENDBRANCH  10  11
BRANCH   3  25
ATOM     25  O   UNL d   1     -20.121 -41.500  25.234  0.00  0.00    -0.353 OA
ATOM     26  C   UNL d   1     -20.556 -41.231  26.561  0.00  0.00     0.210 C 
ENDBRANCH   3  25
BRANCH   1  27
ATOM     27  O   UNL d   1     -18.775 -41.762  22.649  0.00  0.00    -0.353 OA
ATOM     28  C   UNL d   1     -18.309 -40.615  21.948  0.00  0.00     0.210 C 
ENDBRANCH   1  27
TORSDOF 6
ENDMDL
MODEL 5
REMARK VINA RESULT:    -9.978      1.934      3.353
REMARK INTER + INTRA:         -14.406
REMARK INTER:                 -13.552
REMARK INTRA:                  -0.853
REMARK UNBOUND:                -0.928
REMARK  6 active torsions:
REMARK  status: ('A' for Active; 'I' for Inactive)
REMARK    1  A    between atoms: C_3  and  O_2 
REMARK    2  A    between atoms: O_7  and  C_5 
REMARK    3  A    between atoms: C_14  and  C_15 
REMARK    4  A    between atoms: C_15  and  C_16 
REMARK    5  A    between atoms: N_21  and  C_22 
REMARK    6  A    between atoms: C_22  and  C_23 
ROOT
ATOM      1  C   UNL d   1     -10.737 -44.264  31.657  0.00  0.00     0.102 A 
ATOM      2  C   UNL d   1     -12.045 -44.274  31.154  0.00  0.00     0.055 A 
ATOM      3  C   UNL d   1      -9.674 -44.687  30.815  0.00  0.00     0.102 A 
ATOM      4  C   UNL d   1     -12.256 -44.728  29.864  0.00  0.00     0.019 A 
ATOM      5  C   UNL d   1      -9.948 -45.167  29.507  0.00  0.00     0.047 A 
ATOM      6  C   UNL d   1     -11.254 -45.189  29.034  0.00  0.00    -0.041 A 
ATOM      7  C   UNL d   1     -13.519 -44.811  29.153  0.00  0.00     0.164 C 
ATOM      8  C   UNL d   1     -11.786 -45.586  27.680  0.00  0.00     0.052 C 
ATOM      9  O   UNL d   1     -14.552 -44.325  29.582  0.00  0.00    -0.292 OA
ATOM     10  C   UNL d   1     -13.325 -45.594  27.862  0.00  0.00     0.065 C 
ENDROOT
BRANCH  10  11
ATOM     11  C   UNL d   1     -14.176 -44.968  26.745  0.00  0.00     0.017 C 
BRANCH  11  12
ATOM     12  C   UNL d   1     -13.785 -43.550  26.267  0.00  0.00    -0.010 C 
ATOM     13  C   UNL d   1     -13.837 -43.459  24.731  0.00  0.00     0.035 C 
ATOM     14  C   UNL d   1     -15.265 -43.564  24.187  0.00  0.00     0.273 C 
ATOM     15  N   UNL d   1     -16.209 -42.595  24.768  0.00  0.00     0.092 N 
ATOM     16  C   UNL d   1     -16.067 -42.401  26.224  0.00  0.00     0.273 C 
ATOM     17  C   UNL d   1     -14.646 -42.406  26.795  0.00  0.00     0.035 C 
BRANCH  15  18
ATOM     18  C   UNL d   1     -17.615 -43.002  24.507  0.00  0.00     0.311 C 
BRANCH  18  19
ATOM     19  C   UNL d   1     -18.535 -41.964  23.899  0.00  0.00    -0.030 A 
ATOM     20  C   UNL d   1     -18.207 -41.355  22.676  0.00  0.00     0.009 A 
ATOM     21  C   UNL d   1     -19.093 -40.470  22.055  0.00  0.00     0.001 A 
ATOM     22  C   UNL d   1     -20.320 -40.187  22.649  0.00  0.00     0.000 A 
ATOM     23  C   UNL d   1     -20.656 -40.780  23.866  0.00  0.00     0.001 A 
ATOM     24  C   UNL d   1     -19.769 -41.661  24.490  0.00  0.00     0.009 A 
ENDBRANCH  18  19
ENDBRANCH  15  18
ENDBRANCH  11  12
ENDBRANCH  10  11
BRANCH   3  25
ATOM     25  O   UNL d   1      -8.329 -44.705  31.102  0.00  0.00    -0.353 OA
ATOM     26  C   UNL d   1      -7.676 -45.964  31.212  0.00  0.00     0.210 C 
ENDBRANCH   3  25
BRANCH   1  27
ATOM     27  O   UNL d   1     -10.444 -43.804  32.912  0.00  0.00    -0.353 OA
ATOM     28  C   UNL d   1     -10.944 -42.527  33.288  0.00  0.00     0.210 C 
ENDBRANCH   1  27
TORSDOF 6
ENDMDL
MODEL 6
REMARK VINA RESULT:    -9.529      2.992      9.026
REMARK INTER + INTRA:         -13.800
REMARK INTER:                 -13.571
REMARK INTRA:                  -0.229
REMARK UNBOUND:                -0.928
REMARK  6 active torsions:
REMARK  status: ('A' for Active; 'I' for Inactive)
REMARK    1  A    between atoms: C_3  and  O_2 
REMARK    2  A    between atoms: O_7  and  C_5 
REMARK    3  A    between atoms: C_14  and  C_15 
REMARK    4  A    between atoms: C_15  and  C_16 
REMARK    5  A    between atoms: N_21  and  C_22 
REMARK    6  A    between atoms: C_22  and  C_23 
ROOT
ATOM      1  C   UNL d   1     -18.514 -42.306  25.172  0.00  0.00     0.102 A 
ATOM      2  C   UNL d   1     -17.704 -42.476  26.302  0.00  0.00     0.055 A 
ATOM      3  C   UNL d   1     -17.923 -42.385  23.883  0.00  0.00     0.102 A 
ATOM      4  C   UNL d   1     -16.347 -42.680  26.120  0.00  0.00     0.019 A 
ATOM      5  C   UNL d   1     -16.521 -42.574  23.752  0.00  0.00     0.047 A 
ATOM      6  C   UNL d   1     -15.731 -42.718  24.885  0.00  0.00    -0.041 A 
ATOM      7  C   UNL d   1     -15.341 -42.887  27.146  0.00  0.00     0.164 C 
ATOM      8  C   UNL d   1     -14.253 -42.989  25.005  0.00  0.00     0.052 C 
ATOM      9  O   UNL d   1     -15.619 -43.060  28.320  0.00  0.00    -0.292 OA
ATOM     10  C   UNL d   1     -13.955 -42.822  26.518  0.00  0.00     0.065 C 
ENDROOT
BRANCH  10  11
ATOM     11  C   UNL d   1     -13.038 -43.864  27.181  0.00  0.00     0.017 C 
BRANCH  11  12
ATOM     12  C   UNL d   1     -13.681 -45.204  27.608  0.00  0.00    -0.010 C 
ATOM     13  C   UNL d   1     -13.026 -46.384  26.870  0.00  0.00     0.035 C 
ATOM     14  C   UNL d   1     -11.573 -46.610  27.301  0.00  0.00     0.273 C 
ATOM     15  N   UNL d   1     -11.390 -46.776  28.752  0.00  0.00     0.092 N 
ATOM     16  C   UNL d   1     -12.192 -45.854  29.580  0.00  0.00     0.273 C 
ATOM     17  C   UNL d   1     -13.610 -45.533  29.096  0.00  0.00     0.035 C 
BRANCH  15  18
ATOM     18  C   UNL d   1      -9.965 -46.592  29.132  0.00  0.00     0.311 C 
BRANCH  18  19
ATOM     19  C   UNL d   1      -9.635 -45.424  30.039  0.00  0.00    -0.030 A 
ATOM     20  C   UNL d   1      -9.726 -44.106  29.559  0.00  0.00     0.009 A 
ATOM     21  C   UNL d   1      -9.521 -43.018  30.412  0.00  0.00     0.001 A 
ATOM     22  C   UNL d   1      -9.226 -43.235  31.756  0.00  0.00     0.000 A 
ATOM     23  C   UNL d   1      -9.127 -44.539  32.243  0.00  0.00     0.001 A 
ATOM     24  C   UNL d   1      -9.326 -45.627  31.390  0.00  0.00     0.009 A 
ENDBRANCH  18  19
ENDBRANCH  15  18
ENDBRANCH  11  12
ENDBRANCH  10  11
BRANCH   3  25
ATOM     25  O   UNL d   1     -18.549 -42.296  22.662  0.00  0.00    -0.353 OA
ATOM     26  C   UNL d   1     -18.610 -41.028  22.022  0.00  0.00     0.210 C 
ENDBRANCH   3  25
BRANCH   1  27
ATOM     27  O   UNL d   1     -19.868 -42.127  25.268  0.00  0.00    -0.353 OA
ATOM     28  C   UNL d   1     -20.420 -41.896  26.559  0.00  0.00     0.210 C 
ENDBRANCH   1  27
TORSDOF 6
ENDMDL
MODEL 7
REMARK VINA RESULT:    -9.471      4.446     10.646
REMARK INTER + INTRA:         -13.721
REMARK INTER:                 -12.938
REMARK INTRA:                  -0.783
REMARK UNBOUND:                -0.928
REMARK  6 active torsions:
REMARK  status: ('A' for Active; 'I' for Inactive)
REMARK    1  A    between atoms: C_3  and  O_2 
REMARK    2  A    between atoms: O_7  and  C_5 
REMARK    3  A    between atoms: C_14  and  C_15 
REMARK    4  A    between atoms: C_15  and  C_16 
REMARK    5  A    between atoms: N_21  and  C_22 
REMARK    6  A    between atoms: C_22  and  C_23 
ROOT
ATOM      1  C   UNL d   1     -22.336 -40.643  26.225  0.00  0.00     0.102 A 
ATOM      2  C   UNL d   1     -21.093 -41.167  26.602  0.00  0.00     0.055 A 
ATOM      3  C   UNL d   1     -22.610 -40.448  24.844  0.00  0.00     0.102 A 
ATOM      4  C   UNL d   1     -20.162 -41.444  25.616  0.00  0.00     0.019 A 
ATOM      5  C   UNL d   1     -21.611 -40.727  23.874  0.00  0.00     0.047 A 
ATOM      6  C   UNL d   1     -20.376 -41.225  24.270  0.00  0.00    -0.041 A 
ATOM      7  C   UNL d   1     -18.830 -41.995  25.789  0.00  0.00     0.164 C 
ATOM      8  C   UNL d   1     -19.194 -41.653  23.438  0.00  0.00     0.052 C 
ATOM      9  O   UNL d   1     -18.429 -42.433  26.854  0.00  0.00    -0.292 OA
ATOM     10  C   UNL d   1     -18.068 -41.902  24.475  0.00  0.00     0.065 C 
ENDROOT
BRANCH  10  11
ATOM     11  C   UNL d   1     -17.199 -43.158  24.292  0.00  0.00     0.017 C 
BRANCH  11  12
ATOM     12  C   UNL d   1     -15.790 -42.963  23.685  0.00  0.00    -0.010 C 
ATOM     13  C   UNL d   1     -14.998 -41.903  24.472  0.00  0.00     0.035 C 
ATOM     14  C   UNL d   1     -14.641 -42.371  25.886  0.00  0.00     0.273 C 
ATOM     15  N   UNL d   1     -13.927 -43.657  25.938  0.00  0.00     0.092 N 
ATOM     16  C   UNL d   1     -14.444 -44.682  25.011  0.00  0.00     0.273 C 
ATOM     17  C   UNL d   1     -14.909 -44.207  23.631  0.00  0.00     0.035 C 
BRANCH  15  18
ATOM     18  C   UNL d   1     -13.968 -44.232  27.309  0.00  0.00     0.311 C 
BRANCH  18  19
ATOM     19  C   UNL d   1     -12.656 -44.700  27.903  0.00  0.00    -0.030 A 
ATOM     20  C   UNL d   1     -11.618 -43.783  28.143  0.00  0.00     0.009 A 
ATOM     21  C   UNL d   1     -10.442 -44.183  28.781  0.00  0.00     0.001 A 
ATOM     22  C   UNL d   1     -10.290 -45.505  29.191  0.00  0.00     0.000 A 
ATOM     23  C   UNL d   1     -11.309 -46.427  28.954  0.00  0.00     0.001 A 
ATOM     24  C   UNL d   1     -12.484 -46.030  28.310  0.00  0.00     0.009 A 
ENDBRANCH  18  19
ENDBRANCH  15  18
ENDBRANCH  11  12
ENDBRANCH  10  11
BRANCH   3  25
ATOM     25  O   UNL d   1     -23.775 -39.996  24.272  0.00  0.00    -0.353 OA
ATOM     26  C   UNL d   1     -24.098 -40.429  22.956  0.00  0.00     0.210 C 
ENDBRANCH   3  25
BRANCH   1  27
ATOM     27  O   UNL d   1     -23.318 -40.369  27.138  0.00  0.00    -0.353 OA
ATOM     28  C   UNL d   1     -23.982 -41.467  27.752  0.00  0.00     0.210 C 
ENDBRANCH   1  27
TORSDOF 6
ENDMDL
MODEL 8
REMARK VINA RESULT:    -9.183      3.063      5.907
REMARK INTER + INTRA:         -13.332
REMARK INTER:                 -12.404
REMARK INTRA:                  -0.928
REMARK UNBOUND:                -0.928
REMARK  6 active torsions:
REMARK  status: ('A' for Active; 'I' for Inactive)
REMARK    1  A    between atoms: C_3  and  O_2 
REMARK    2  A    between atoms: O_7  and  C_5 
REMARK    3  A    between atoms: C_14  and  C_15 
REMARK    4  A    between atoms: C_15  and  C_16 
REMARK    5  A    between atoms: N_21  and  C_22 
REMARK    6  A    between atoms: C_22  and  C_23 
ROOT
ATOM      1  C   UNL d   1     -13.587 -45.076  29.749  0.00  0.00     0.102 A 
ATOM      2  C   UNL d   1     -14.544 -44.189  29.238  0.00  0.00     0.055 A 
ATOM      3  C   UNL d   1     -12.740 -45.770  28.844  0.00  0.00     0.102 A 
ATOM      4  C   UNL d   1     -14.652 -44.048  27.866  0.00  0.00     0.019 A 
ATOM      5  C   UNL d   1     -12.908 -45.607  27.443  0.00  0.00     0.047 A 
ATOM      6  C   UNL d   1     -13.877 -44.740  26.955  0.00  0.00    -0.041 A 
ATOM      7  C   UNL d   1     -15.561 -43.184  27.136  0.00  0.00     0.164 C 
ATOM      8  C   UNL d   1     -14.202 -44.352  25.535  0.00  0.00     0.052 C 
ATOM      9  O   UNL d   1     -16.253 -42.341  27.681  0.00  0.00    -0.292 OA
ATOM     10  C   UNL d   1     -15.509 -43.527  25.653  0.00  0.00     0.065 C 
ENDROOT
BRANCH  10  11
ATOM     11  C   UNL d   1     -15.615 -42.239  24.820  0.00  0.00     0.017 C 
BRANCH  11  12
ATOM     12  C   UNL d   1     -15.730 -42.394  23.286  0.00  0.00    -0.010 C 
ATOM     13  C   UNL d   1     -16.705 -43.528  22.924  0.00  0.00     0.035 C 
ATOM     14  C   UNL d   1     -18.154 -43.193  23.290  0.00  0.00     0.273 C 
ATOM     15  N   UNL d   1     -18.645 -41.926  22.726  0.00  0.00     0.092 N 
ATOM     16  C   UNL d   1     -17.674 -40.815  22.780  0.00  0.00     0.273 C 
ATOM     17  C   UNL d   1     -16.203 -41.160  22.524  0.00  0.00     0.035 C 
BRANCH  15  18
ATOM     18  C   UNL d   1     -19.877 -41.475  23.426  0.00  0.00     0.311 C 
BRANCH  18  19
ATOM     19  C   UNL d   1     -20.142 -42.049  24.802  0.00  0.00    -0.030 A 
ATOM     20  C   UNL d   1     -21.032 -43.125  24.961  0.00  0.00     0.009 A 
ATOM     21  C   UNL d   1     -21.210 -43.729  26.209  0.00  0.00     0.001 A 
ATOM     22  C   UNL d   1     -20.497 -43.265  27.312  0.00  0.00     0.000 A 
ATOM     23  C   UNL d   1     -19.615 -42.194  27.168  0.00  0.00     0.001 A 
ATOM     24  C   UNL d   1     -19.440 -41.587  25.922  0.00  0.00     0.009 A 
ENDBRANCH  18  19
ENDBRANCH  15  18
ENDBRANCH  11  12
ENDBRANCH  10  11
BRANCH   3  25
ATOM     25  O   UNL d   1     -11.717 -46.638  29.145  0.00  0.00    -0.353 OA
ATOM     26  C   UNL d   1     -10.468 -46.468  28.487  0.00  0.00     0.210 C 
ENDBRANCH   3  25
BRANCH   1  27
ATOM     27  O   UNL d   1     -13.401 -45.250  31.094  0.00  0.00    -0.353 OA
ATOM     28  C   UNL d   1     -12.661 -44.261  31.798  0.00  0.00     0.210 C 
ENDBRANCH   1  27
TORSDOF 6
ENDMDL
MODEL 9
REMARK VINA RESULT:    -9.157      2.356      3.980
REMARK INTER + INTRA:         -13.297
REMARK INTER:                 -13.667
REMARK INTRA:                   0.369
REMARK UNBOUND:                -0.928
REMARK  6 active torsions:
REMARK  status: ('A' for Active; 'I' for Inactive)
REMARK    1  A    between atoms: C_3  and  O_2 
REMARK    2  A    between atoms: O_7  and  C_5 
REMARK    3  A    between atoms: C_14  and  C_15 
REMARK    4  A    between atoms: C_15  and  C_16 
REMARK    5  A    between atoms: N_21  and  C_22 
REMARK    6  A    between atoms: C_22  and  C_23 
ROOT
ATOM      1  C   UNL d   1      -9.057 -44.863  30.646  0.00  0.00     0.102 A 
ATOM      2  C   UNL d   1     -10.194 -45.199  29.898  0.00  0.00     0.055 A 
ATOM      3  C   UNL d   1      -8.457 -43.590  30.451  0.00  0.00     0.102 A 
ATOM      4  C   UNL d   1     -10.671 -44.289  28.972  0.00  0.00     0.019 A 
ATOM      5  C   UNL d   1      -8.972 -42.702  29.470  0.00  0.00     0.047 A 
ATOM      6  C   UNL d   1     -10.087 -43.062  28.723  0.00  0.00    -0.041 A 
ATOM      7  C   UNL d   1     -11.829 -44.433  28.108  0.00  0.00     0.164 C 
ATOM      8  C   UNL d   1     -10.849 -42.279  27.684  0.00  0.00     0.052 C 
ATOM      9  O   UNL d   1     -12.628 -45.346  28.221  0.00  0.00    -0.292 OA
ATOM     10  C   UNL d   1     -11.840 -43.308  27.081  0.00  0.00     0.065 C 
ENDROOT
BRANCH  10  11
ATOM     11  C   UNL d   1     -13.286 -42.844  26.839  0.00  0.00     0.017 C 
BRANCH  11  12
ATOM     12  C   UNL d   1     -14.375 -43.938  26.748  0.00  0.00    -0.010 C 
ATOM     13  C   UNL d   1     -15.778 -43.327  26.917  0.00  0.00     0.035 C 
ATOM     14  C   UNL d   1     -16.171 -42.429  25.741  0.00  0.00     0.273 C 
ATOM     15  N   UNL d   1     -16.075 -43.078  24.423  0.00  0.00     0.092 N 
ATOM     16  C   UNL d   1     -14.876 -43.921  24.243  0.00  0.00     0.273 C 
ATOM     17  C   UNL d   1     -14.409 -44.740  25.450  0.00  0.00     0.035 C 
BRANCH  15  18
ATOM     18  C   UNL d   1     -16.078 -42.068  23.332  0.00  0.00     0.311 C 
BRANCH  18  19
ATOM     19  C   UNL d   1     -17.425 -41.634  22.793  0.00  0.00    -0.030 A 
ATOM     20  C   UNL d   1     -17.516 -40.558  21.894  0.00  0.00     0.009 A 
ATOM     21  C   UNL d   1     -18.739 -40.212  21.313  0.00  0.00     0.001 A 
ATOM     22  C   UNL d   1     -19.885 -40.940  21.621  0.00  0.00     0.000 A 
ATOM     23  C   UNL d   1     -19.809 -42.007  22.517  0.00  0.00     0.001 A 
ATOM     24  C   UNL d   1     -18.588 -42.351  23.103  0.00  0.00     0.009 A 
ENDBRANCH  18  19
ENDBRANCH  15  18
ENDBRANCH  11  12
ENDBRANCH  10  11
BRANCH   3  25
ATOM     25  O   UNL d   1      -7.377 -43.058  31.114  0.00  0.00    -0.353 OA
ATOM     26  C   UNL d   1      -7.365 -43.101  32.536  0.00  0.00     0.210 C 
ENDBRANCH   3  25
BRANCH   1  27
ATOM     27  O   UNL d   1      -8.542 -45.698  31.600  0.00  0.00    -0.353 OA
ATOM     28  C   UNL d   1      -8.457 -47.085  31.298  0.00  0.00     0.210 C 
ENDBRANCH   1  27
TORSDOF 6
ENDMDL
