REMARK  5 active torsions:
REMARK  status: ('A' for Active; 'I' for Inactive)
REMARK    1  A    between atoms: C_2  and  N_3 
REMARK       I    between atoms: N_3  and  C_4 
REMARK    2  A    between atoms: C_4  and  O_6 
REMARK    3  A    between atoms: O_6  and  C_8 
REMARK    4  A    between atoms: C_12  and  C_14 
REMARK    5  A    between atoms: C_14  and  N_15 
ROOT
ATOM      1  C   UNL d   1       6.249  -1.457   2.691  0.00  0.00     0.081 A 
ATOM      2  C   UNL d   1       7.114  -0.406   2.385  0.00  0.00     0.037 A 
ATOM      3  C   UNL d   1       6.726  -2.617   3.310  0.00  0.00     0.046 A 
ATOM      4  C   UNL d   1       8.474  -0.539   2.633  0.00  0.00     0.003 A 
ATOM      5  C   UNL d   1       8.100  -2.758   3.577  0.00  0.00    -0.023 A 
ATOM      6  C   UNL d   1       8.966  -1.708   3.217  0.00  0.00     0.009 A 
ENDROOT
BRANCH   1   7
ATOM      7  O   UNL d   1       4.856  -1.331   2.520  0.00  0.00    -0.261 OA
BRANCH   7   8
ATOM      8  C   UNL d   1       4.369  -0.681   1.379  0.00  0.00     0.367 C 
ATOM      9  N   UNL d   1       3.060  -0.234   1.550  0.00  0.00    -0.332 N 
ATOM     10  C   UNL d   1       2.389  -0.371   2.828  0.00  0.00     0.155 C 
ATOM     11  O   UNL d   1       5.016  -0.490   0.357  0.00  0.00    -0.238 OA
BRANCH   9  12
ATOM     12  C   UNL d   1       2.470   0.631   0.534  0.00  0.00     0.123 C 
ATOM     13  C   UNL d   1       2.912   2.083   0.657  0.00  0.00     0.026 C 
ENDBRANCH   9  12
ENDBRANCH   7   8
ENDBRANCH   1   7
BRANCH   5  14
ATOM     14  C   UNL d   1       8.674  -3.955   4.344  0.00  0.00     0.251 C 
ATOM     15  C   UNL d   1       8.577  -3.594   5.840  0.00  0.00     0.048 C 
BRANCH  14  16
ATOM     16  N   UNL d   1       8.029  -5.254   4.016  0.00  0.00     0.088 N 
ATOM     17  C   UNL d   1       8.245  -5.613   2.606  0.00  0.00     0.310 C 
ATOM     18  C   UNL d   1       8.541  -6.352   4.846  0.00  0.00     0.310 C 
ENDBRANCH  14  16
ENDBRANCH   5  14
TORSDOF 5
