MODEL 1
REMARK VINA RESULT:    -8.111      0.000      0.000
REMARK INTER + INTRA:         -10.844
REMARK INTER:                 -10.492
REMARK INTRA:                  -0.352
REMARK UNBOUND:                -0.362
REMARK  5 active torsions:
REMARK  status: ('A' for Active; 'I' for Inactive)
REMARK    1  A    between atoms: C_2  and  N_3 
REMARK       I    between atoms: N_3  and  C_4 
REMARK    2  A    between atoms: C_4  and  O_6 
REMARK    3  A    between atoms: O_6  and  C_8 
REMARK    4  A    between atoms: C_12  and  C_14 
REMARK    5  A    between atoms: C_14  and  N_15 
ROOT
ATOM      1  C   UNL d   1     -13.032 -44.154  27.364  0.00  0.00     0.081 A 
ATOM      2  C   UNL d   1     -13.416 -45.391  26.846  0.00  0.00     0.037 A 
ATOM      3  C   UNL d   1     -11.915 -44.045  28.198  0.00  0.00     0.046 A 
ATOM      4  C   UNL d   1     -12.726 -46.538  27.217  0.00  0.00     0.003 A 
ATOM      5  C   UNL d   1     -11.200 -45.198  28.572  0.00  0.00    -0.023 A 
ATOM      6  C   UNL d   1     -11.631 -46.445  28.079  0.00  0.00     0.009 A 
ENDROOT
BRANCH   1   7
ATOM      7  O   UNL d   1     -13.663 -42.963  26.955  0.00  0.00    -0.261 OA
BRANCH   7   8
ATOM      8  C   UNL d   1     -14.384 -42.955  25.754  0.00  0.00     0.367 C 
ATOM      9  N   UNL d   1     -15.759 -42.870  25.970  0.00  0.00    -0.332 N 
ATOM     10  C   UNL d   1     -16.292 -42.705  27.308  0.00  0.00     0.155 C 
ATOM     11  O   UNL d   1     -13.880 -42.984  24.639  0.00  0.00    -0.238 OA
BRANCH   9  12
ATOM     12  C   UNL d   1     -16.642 -42.656  24.829  0.00  0.00     0.123 C 
ATOM     13  C   UNL d   1     -18.100 -42.477  25.228  0.00  0.00     0.026 C 
ENDBRANCH   9  12
ENDBRANCH   7   8
ENDBRANCH   1   7
BRANCH   5  14
ATOM     14  C   UNL d   1      -9.910 -45.139  29.397  0.00  0.00     0.251 C 
ATOM     15  C   UNL d   1      -9.462 -43.664  29.391  0.00  0.00     0.048 C 
BRANCH  14  16
ATOM     16  N   UNL d   1     -10.037 -45.704  30.767  0.00  0.00     0.088 N 
ATOM     17  C   UNL d   1      -8.731 -46.140  31.284  0.00  0.00     0.310 C 
ATOM     18  C   UNL d   1     -10.598 -44.733  31.716  0.00  0.00     0.310 C 
ENDBRANCH  14  16
ENDBRANCH   5  14
TORSDOF 5
ENDMDL
MODEL 2
REMARK VINA RESULT:    -8.103      0.879      1.336
REMARK INTER + INTRA:         -10.833
REMARK INTER:                 -10.379
REMARK INTRA:                  -0.454
REMARK UNBOUND:                -0.362
REMARK  5 active torsions:
REMARK  status: ('A' for Active; 'I' for Inactive)
REMARK    1  A    between atoms: C_2  and  N_3 
REMARK       I    between atoms: N_3  and  C_4 
REMARK    2  A    between atoms: C_4  and  O_6 
REMARK    3  A    between atoms: O_6  and  C_8 
REMARK    4  A    between atoms: C_12  and  C_14 
REMARK    5  A    between atoms: C_14  and  N_15 
ROOT
ATOM      1  C   UNL d   1     -13.149 -44.148  27.257  0.00  0.00     0.081 A 
ATOM      2  C   UNL d   1     -13.552 -45.345  26.665  0.00  0.00     0.037 A 
ATOM      3  C   UNL d   1     -12.027 -44.106  28.092  0.00  0.00     0.046 A 
ATOM      4  C   UNL d   1     -12.877 -46.522  26.963  0.00  0.00     0.003 A 
ATOM      5  C   UNL d   1     -11.328 -45.290  28.391  0.00  0.00    -0.023 A 
ATOM      6  C   UNL d   1     -11.779 -46.498  27.825  0.00  0.00     0.009 A 
ENDROOT
BRANCH   1   7
ATOM      7  O   UNL d   1     -13.763 -42.924  26.924  0.00  0.00    -0.261 OA
BRANCH   7   8
ATOM      8  C   UNL d   1     -15.162 -42.856  26.889  0.00  0.00     0.367 C 
ATOM      9  N   UNL d   1     -15.641 -42.594  25.606  0.00  0.00    -0.332 N 
ATOM     10  C   UNL d   1     -14.736 -42.522  24.476  0.00  0.00     0.155 C 
ATOM     11  O   UNL d   1     -15.892 -43.036  27.855  0.00  0.00    -0.238 OA
BRANCH   9  12
ATOM     12  C   UNL d   1     -17.075 -42.683  25.356  0.00  0.00     0.123 C 
ATOM     13  C   UNL d   1     -17.440 -42.466  23.893  0.00  0.00     0.026 C 
ENDBRANCH   9  12
ENDBRANCH   7   8
ENDBRANCH   1   7
BRANCH   5  14
ATOM     14  C   UNL d   1     -10.034 -45.300  29.213  0.00  0.00     0.251 C 
ATOM     15  C   UNL d   1      -9.763 -43.834  29.607  0.00  0.00     0.048 C 
BRANCH  14  16
ATOM     16  N   UNL d   1     -10.062 -46.220  30.380  0.00  0.00     0.088 N 
ATOM     17  C   UNL d   1      -8.731 -46.338  30.996  0.00  0.00     0.310 C 
ATOM     18  C   UNL d   1     -11.002 -45.773  31.416  0.00  0.00     0.310 C 
ENDBRANCH  14  16
ENDBRANCH   5  14
TORSDOF 5
ENDMDL
MODEL 3
REMARK VINA RESULT:    -7.857      1.592      2.334
REMARK INTER + INTRA:         -10.515
REMARK INTER:                 -10.117
REMARK INTRA:                  -0.399
REMARK UNBOUND:                -0.362
REMARK  5 active torsions:
REMARK  status: ('A' for Active; 'I' for Inactive)
REMARK    1  A    between atoms: C_2  and  N_3 
REMARK       I    between atoms: N_3  and  C_4 
REMARK    2  A    between atoms: C_4  and  O_6 
REMARK    3  A    between atoms: O_6  and  C_8 
REMARK    4  A    between atoms: C_12  and  C_14 
REMARK    5  A    between atoms: C_14  and  N_15 
ROOT
ATOM      1  C   UNL d   1     -13.852 -44.038  26.604  0.00  0.00     0.081 A 
ATOM      2  C   UNL d   1     -13.131 -42.843  26.597  0.00  0.00     0.037 A 
ATOM      3  C   UNL d   1     -13.433 -45.119  27.386  0.00  0.00     0.046 A 
ATOM      4  C   UNL d   1     -11.949 -42.748  27.320  0.00  0.00     0.003 A 
ATOM      5  C   UNL d   1     -12.243 -45.030  28.131  0.00  0.00    -0.023 A 
ATOM      6  C   UNL d   1     -11.503 -43.834  28.075  0.00  0.00     0.009 A 
ENDROOT
BRANCH   1   7
ATOM      7  O   UNL d   1     -15.091 -44.148  25.942  0.00  0.00    -0.261 OA
BRANCH   7   8
ATOM      8  C   UNL d   1     -15.202 -43.674  24.629  0.00  0.00     0.367 C 
ATOM      9  N   UNL d   1     -16.354 -42.911  24.444  0.00  0.00    -0.332 N 
ATOM     10  C   UNL d   1     -17.228 -42.603  25.559  0.00  0.00     0.155 C 
ATOM     11  O   UNL d   1     -14.377 -43.869  23.745  0.00  0.00    -0.238 OA
BRANCH   9  12
ATOM     12  C   UNL d   1     -16.526 -42.182  23.192  0.00  0.00     0.123 C 
ATOM     13  C   UNL d   1     -17.959 -41.724  22.961  0.00  0.00     0.026 C 
ENDBRANCH   9  12
ENDBRANCH   7   8
ENDBRANCH   1   7
BRANCH   5  14
ATOM     14  C   UNL d   1     -11.783 -46.136  29.087  0.00  0.00     0.251 C 
ATOM     15  C   UNL d   1     -10.397 -46.589  28.585  0.00  0.00     0.048 C 
BRANCH  14  16
ATOM     16  N   UNL d   1     -11.781 -45.741  30.520  0.00  0.00     0.088 N 
ATOM     17  C   UNL d   1     -13.018 -46.170  31.191  0.00  0.00     0.310 C 
ATOM     18  C   UNL d   1     -10.646 -46.316  31.253  0.00  0.00     0.310 C 
ENDBRANCH  14  16
ENDBRANCH   5  14
TORSDOF 5
ENDMDL
MODEL 4
REMARK VINA RESULT:    -7.769      2.273      6.708
REMARK INTER + INTRA:         -10.401
REMARK INTER:                  -9.966
REMARK INTRA:                  -0.436
REMARK UNBOUND:                -0.362
REMARK  5 active torsions:
REMARK  status: ('A' for Active; 'I' for Inactive)
REMARK    1  A    between atoms: C_2  and  N_3 
REMARK       I    between atoms: N_3  and  C_4 
REMARK    2  A    between atoms: C_4  and  O_6 
REMARK    3  A    between atoms: O_6  and  C_8 
REMARK    4  A    between atoms: C_12  and  C_14 
REMARK    5  A    between atoms: C_14  and  N_15 
ROOT
ATOM      1  C   UNL d   1     -11.113 -44.307  28.625  0.00  0.00     0.081 A 
ATOM      2  C   UNL d   1     -10.784 -45.661  28.685  0.00  0.00     0.037 A 
ATOM      3  C   UNL d   1     -12.245 -43.878  27.925  0.00  0.00     0.046 A 
ATOM      4  C   UNL d   1     -11.547 -46.587  27.986  0.00  0.00     0.003 A 
ATOM      5  C   UNL d   1     -13.033 -44.808  27.223  0.00  0.00    -0.023 A 
ATOM      6  C   UNL d   1     -12.659 -46.165  27.254  0.00  0.00     0.009 A 
ENDROOT
BRANCH   1   7
ATOM      7  O   UNL d   1     -10.405 -43.348  29.377  0.00  0.00    -0.261 OA
BRANCH   7   8
ATOM      8  C   UNL d   1     -10.792 -43.105  30.701  0.00  0.00     0.367 C 
ATOM      9  N   UNL d   1      -9.829 -43.529  31.614  0.00  0.00    -0.332 N 
ATOM     10  C   UNL d   1      -8.555 -44.053  31.162  0.00  0.00     0.155 C 
ATOM     11  O   UNL d   1     -11.835 -42.554  31.031  0.00  0.00    -0.238 OA
BRANCH   9  12
ATOM     12  C   UNL d   1      -9.985 -43.176  33.021  0.00  0.00     0.123 C 
ATOM     13  C   UNL d   1      -8.692 -42.688  33.661  0.00  0.00     0.026 C 
ENDBRANCH   9  12
ENDBRANCH   7   8
ENDBRANCH   1   7
BRANCH   5  14
ATOM     14  C   UNL d   1     -14.341 -44.421  26.523  0.00  0.00     0.251 C 
ATOM     15  C   UNL d   1     -15.187 -43.674  27.574  0.00  0.00     0.048 C 
BRANCH  14  16
ATOM     16  N   UNL d   1     -14.154 -43.645  25.269  0.00  0.00     0.088 N 
ATOM     17  C   UNL d   1     -14.664 -44.385  24.105  0.00  0.00     0.310 C 
ATOM     18  C   UNL d   1     -14.837 -42.345  25.314  0.00  0.00     0.310 C 
ENDBRANCH  14  16
ENDBRANCH   5  14
TORSDOF 5
ENDMDL
MODEL 5
REMARK VINA RESULT:    -7.596      1.522      2.236
REMARK INTER + INTRA:         -10.178
REMARK INTER:                  -9.904
REMARK INTRA:                  -0.274
REMARK UNBOUND:                -0.362
REMARK  5 active torsions:
REMARK  status: ('A' for Active; 'I' for Inactive)
REMARK    1  A    between atoms: C_2  and  N_3 
REMARK       I    between atoms: N_3  and  C_4 
REMARK    2  A    between atoms: C_4  and  O_6 
REMARK    3  A    between atoms: O_6  and  C_8 
REMARK    4  A    between atoms: C_12  and  C_14 
REMARK    5  A    between atoms: C_14  and  N_15 
ROOT
ATOM      1  C   UNL d   1     -13.247 -44.719  26.986  0.00  0.00     0.081 A 
ATOM      2  C   UNL d   1     -12.962 -46.074  27.162  0.00  0.00     0.037 A 
ATOM      3  C   UNL d   1     -12.472 -43.739  27.614  0.00  0.00     0.046 A 
ATOM      4  C   UNL d   1     -11.943 -46.456  28.025  0.00  0.00     0.003 A 
ATOM      5  C   UNL d   1     -11.430 -44.114  28.480  0.00  0.00    -0.023 A 
ATOM      6  C   UNL d   1     -11.187 -45.485  28.686  0.00  0.00     0.009 A 
ENDROOT
BRANCH   1   7
ATOM      7  O   UNL d   1     -14.225 -44.292  26.065  0.00  0.00    -0.261 OA
BRANCH   7   8
ATOM      8  C   UNL d   1     -15.318 -43.551  26.532  0.00  0.00     0.367 C 
ATOM      9  N   UNL d   1     -16.086 -43.037  25.489  0.00  0.00    -0.332 N 
ATOM     10  C   UNL d   1     -15.782 -43.367  24.110  0.00  0.00     0.155 C 
ATOM     11  O   UNL d   1     -15.598 -43.393  27.714  0.00  0.00    -0.238 OA
BRANCH   9  12
ATOM     12  C   UNL d   1     -17.365 -42.407  25.797  0.00  0.00     0.123 C 
ATOM     13  C   UNL d   1     -18.441 -42.703  24.760  0.00  0.00     0.026 C 
ENDBRANCH   9  12
ENDBRANCH   7   8
ENDBRANCH   1   7
BRANCH   5  14
ATOM     14  C   UNL d   1     -10.479 -43.094  29.118  0.00  0.00     0.251 C 
ATOM     15  C   UNL d   1     -10.834 -43.055  30.618  0.00  0.00     0.048 C 
BRANCH  14  16
ATOM     16  N   UNL d   1      -9.038 -43.367  28.868  0.00  0.00     0.088 N 
ATOM     17  C   UNL d   1      -8.444 -42.332  28.009  0.00  0.00     0.310 C 
ATOM     18  C   UNL d   1      -8.261 -43.423  30.113  0.00  0.00     0.310 C 
ENDBRANCH  14  16
ENDBRANCH   5  14
TORSDOF 5
ENDMDL
MODEL 6
REMARK VINA RESULT:    -7.438      2.133      6.987
REMARK INTER + INTRA:          -9.974
REMARK INTER:                  -9.590
REMARK INTRA:                  -0.385
REMARK UNBOUND:                -0.362
REMARK  5 active torsions:
REMARK  status: ('A' for Active; 'I' for Inactive)
REMARK    1  A    between atoms: C_2  and  N_3 
REMARK       I    between atoms: N_3  and  C_4 
REMARK    2  A    between atoms: C_4  and  O_6 
REMARK    3  A    between atoms: O_6  and  C_8 
REMARK    4  A    between atoms: C_12  and  C_14 
REMARK    5  A    between atoms: C_14  and  N_15 
ROOT
ATOM      1  C   UNL d   1     -12.464 -44.980  28.168  0.00  0.00     0.081 A 
ATOM      2  C   UNL d   1     -11.559 -43.921  28.097  0.00  0.00     0.037 A 
ATOM      3  C   UNL d   1     -13.656 -44.951  27.437  0.00  0.00     0.046 A 
ATOM      4  C   UNL d   1     -11.874 -42.795  27.348  0.00  0.00     0.003 A 
ATOM      5  C   UNL d   1     -13.981 -43.821  26.665  0.00  0.00    -0.023 A 
ATOM      6  C   UNL d   1     -13.079 -42.740  26.643  0.00  0.00     0.009 A 
ENDROOT
BRANCH   1   7
ATOM      7  O   UNL d   1     -12.148 -46.167  28.858  0.00  0.00    -0.261 OA
BRANCH   7   8
ATOM      8  C   UNL d   1     -10.809 -46.433  29.173  0.00  0.00     0.367 C 
ATOM      9  N   UNL d   1     -10.548 -46.265  30.532  0.00  0.00    -0.332 N 
ATOM     10  C   UNL d   1     -11.616 -45.954  31.461  0.00  0.00     0.155 C 
ATOM     11  O   UNL d   1      -9.965 -46.802  28.367  0.00  0.00    -0.238 OA
BRANCH   9  12
ATOM     12  C   UNL d   1      -9.255 -46.687  31.060  0.00  0.00     0.123 C 
ATOM     13  C   UNL d   1      -8.418 -45.528  31.584  0.00  0.00     0.026 C 
ENDBRANCH   9  12
ENDBRANCH   7   8
ENDBRANCH   1   7
BRANCH   5  14
ATOM     14  C   UNL d   1     -15.217 -43.765  25.761  0.00  0.00     0.251 C 
ATOM     15  C   UNL d   1     -16.120 -42.654  26.334  0.00  0.00     0.048 C 
BRANCH  14  16
ATOM     16  N   UNL d   1     -14.909 -43.577  24.318  0.00  0.00     0.088 N 
ATOM     17  C   UNL d   1     -14.628 -44.864  23.663  0.00  0.00     0.310 C 
ATOM     18  C   UNL d   1     -16.012 -42.932  23.595  0.00  0.00     0.310 C 
ENDBRANCH  14  16
ENDBRANCH   5  14
TORSDOF 5
ENDMDL
MODEL 7
REMARK VINA RESULT:    -7.428      1.538      2.539
REMARK INTER + INTRA:          -9.961
REMARK INTER:                  -9.484
REMARK INTRA:                  -0.476
REMARK UNBOUND:                -0.362
REMARK  5 active torsions:
REMARK  status: ('A' for Active; 'I' for Inactive)
REMARK    1  A    between atoms: C_2  and  N_3 
REMARK       I    between atoms: N_3  and  C_4 
REMARK    2  A    between atoms: C_4  and  O_6 
REMARK    3  A    between atoms: O_6  and  C_8 
REMARK    4  A    between atoms: C_12  and  C_14 
REMARK    5  A    between atoms: C_14  and  N_15 
ROOT
ATOM      1  C   UNL d   1     -12.422 -44.026  27.758  0.00  0.00     0.081 A 
ATOM      2  C   UNL d   1     -11.835 -42.835  27.327  0.00  0.00     0.037 A 
ATOM      3  C   UNL d   1     -11.978 -44.659  28.923  0.00  0.00     0.046 A 
ATOM      4  C   UNL d   1     -10.754 -42.309  28.022  0.00  0.00     0.003 A 
ATOM      5  C   UNL d   1     -10.891 -44.129  29.642  0.00  0.00    -0.023 A 
ATOM      6  C   UNL d   1     -10.279 -42.954  29.166  0.00  0.00     0.009 A 
ENDROOT
BRANCH   1   7
ATOM      7  O   UNL d   1     -13.564 -44.550  27.121  0.00  0.00    -0.261 OA
BRANCH   7   8
ATOM      8  C   UNL d   1     -14.752 -43.810  27.142  0.00  0.00     0.367 C 
ATOM      9  N   UNL d   1     -15.208 -43.515  25.859  0.00  0.00    -0.332 N 
ATOM     10  C   UNL d   1     -14.531 -44.042  24.690  0.00  0.00     0.155 C 
ATOM     11  O   UNL d   1     -15.351 -43.483  28.159  0.00  0.00    -0.238 OA
BRANCH   9  12
ATOM     12  C   UNL d   1     -16.531 -42.921  25.697  0.00  0.00     0.123 C 
ATOM     13  C   UNL d   1     -16.852 -42.563  24.253  0.00  0.00     0.026 C 
ENDBRANCH   9  12
ENDBRANCH   7   8
ENDBRANCH   1   7
BRANCH   5  14
ATOM     14  C   UNL d   1     -10.421 -44.713  30.980  0.00  0.00     0.251 C 
ATOM     15  C   UNL d   1     -11.074 -46.106  31.094  0.00  0.00     0.048 C 
BRANCH  14  16
ATOM     16  N   UNL d   1      -8.944 -44.748  31.143  0.00  0.00     0.088 N 
ATOM     17  C   UNL d   1      -8.511 -43.879  32.247  0.00  0.00     0.310 C 
ATOM     18  C   UNL d   1      -8.448 -46.104  31.414  0.00  0.00     0.310 C 
ENDBRANCH  14  16
ENDBRANCH   5  14
TORSDOF 5
ENDMDL
MODEL 8
REMARK VINA RESULT:    -7.023      1.850      7.286
REMARK INTER + INTRA:          -9.438
REMARK INTER:                  -8.988
REMARK INTRA:                  -0.451
REMARK UNBOUND:                -0.362
REMARK  5 active torsions:
REMARK  status: ('A' for Active; 'I' for Inactive)
REMARK    1  A    between atoms: C_2  and  N_3 
REMARK       I    between atoms: N_3  and  C_4 
REMARK    2  A    between atoms: C_4  and  O_6 
REMARK    3  A    between atoms: O_6  and  C_8 
REMARK    4  A    between atoms: C_12  and  C_14 
REMARK    5  A    between atoms: C_14  and  N_15 
ROOT
ATOM      1  C   UNL d   1     -14.590 -43.264  26.286  0.00  0.00     0.081 A 
ATOM      2  C   UNL d   1     -14.136 -43.822  25.091  0.00  0.00     0.037 A 
ATOM      3  C   UNL d   1     -15.873 -42.714  26.375  0.00  0.00     0.046 A 
ATOM      4  C   UNL d   1     -14.937 -43.769  23.958  0.00  0.00     0.003 A 
ATOM      5  C   UNL d   1     -16.698 -42.665  25.236  0.00  0.00    -0.023 A 
ATOM      6  C   UNL d   1     -16.205 -43.189  24.026  0.00  0.00     0.009 A 
ENDROOT
BRANCH   1   7
ATOM      7  O   UNL d   1     -13.836 -43.362  27.472  0.00  0.00    -0.261 OA
BRANCH   7   8
ATOM      8  C   UNL d   1     -13.169 -44.561  27.754  0.00  0.00     0.367 C 
ATOM      9  N   UNL d   1     -11.811 -44.360  27.997  0.00  0.00    -0.332 N 
ATOM     10  C   UNL d   1     -11.254 -43.022  28.038  0.00  0.00     0.155 C 
ATOM     11  O   UNL d   1     -13.707 -45.659  27.818  0.00  0.00    -0.238 OA
BRANCH   9  12
ATOM     12  C   UNL d   1     -11.010 -45.472  28.495  0.00  0.00     0.123 C 
ATOM     13  C   UNL d   1     -11.068 -45.617  30.010  0.00  0.00     0.026 C 
ENDBRANCH   9  12
ENDBRANCH   7   8
ENDBRANCH   1   7
BRANCH   5  14
ATOM     14  C   UNL d   1     -18.148 -42.171  25.287  0.00  0.00     0.251 C 
ATOM     15  C   UNL d   1     -18.713 -42.347  23.863  0.00  0.00     0.048 C 
BRANCH  14  16
ATOM     16  N   UNL d   1     -18.980 -42.831  26.329  0.00  0.00     0.088 N 
ATOM     17  C   UNL d   1     -19.440 -41.861  27.334  0.00  0.00     0.310 C 
ATOM     18  C   UNL d   1     -20.163 -43.488  25.759  0.00  0.00     0.310 C 
ENDBRANCH  14  16
ENDBRANCH   5  14
TORSDOF 5
ENDMDL
MODEL 9
REMARK VINA RESULT:    -6.964      2.383      3.985
REMARK INTER + INTRA:          -9.362
REMARK INTER:                  -9.000
REMARK INTRA:                  -0.362
REMARK UNBOUND:                -0.362
REMARK  5 active torsions:
REMARK  status: ('A' for Active; 'I' for Inactive)
REMARK    1  A    between atoms: C_2  and  N_3 
REMARK       I    between atoms: N_3  and  C_4 
REMARK    2  A    between atoms: C_4  and  O_6 
REMARK    3  A    between atoms: O_6  and  C_8 
REMARK    4  A    between atoms: C_12  and  C_14 
REMARK    5  A    between atoms: C_14  and  N_15 
ROOT
ATOM      1  C   UNL d   1     -13.302 -44.393  30.936  0.00  0.00     0.081 A 
ATOM      2  C   UNL d   1     -13.880 -43.580  31.913  0.00  0.00     0.037 A 
ATOM      3  C   UNL d   1     -11.936 -44.690  30.971  0.00  0.00     0.046 A 
ATOM      4  C   UNL d   1     -13.079 -43.004  32.890  0.00  0.00     0.003 A 
ATOM      5  C   UNL d   1     -11.117 -44.121  31.964  0.00  0.00    -0.023 A 
ATOM      6  C   UNL d   1     -11.707 -43.265  32.912  0.00  0.00     0.009 A 
ENDROOT
BRANCH   1   7
ATOM      7  O   UNL d   1     -14.092 -45.051  29.973  0.00  0.00    -0.261 OA
BRANCH   7   8
ATOM      8  C   UNL d   1     -14.759 -44.288  29.005  0.00  0.00     0.367 C 
ATOM      9  N   UNL d   1     -14.189 -44.432  27.742  0.00  0.00    -0.332 N 
ATOM     10  C   UNL d   1     -13.102 -45.366  27.518  0.00  0.00     0.155 C 
ATOM     11  O   UNL d   1     -15.747 -43.598  29.222  0.00  0.00    -0.238 OA
BRANCH   9  12
ATOM     12  C   UNL d   1     -14.876 -43.862  26.588  0.00  0.00     0.123 C 
ATOM     13  C   UNL d   1     -14.412 -44.456  25.264  0.00  0.00     0.026 C 
ENDBRANCH   9  12
ENDBRANCH   7   8
ENDBRANCH   1   7
BRANCH   5  14
ATOM     14  C   UNL d   1      -9.636 -44.485  32.121  0.00  0.00     0.251 C 
ATOM     15  C   UNL d   1      -9.448 -45.840  31.409  0.00  0.00     0.048 C 
BRANCH  14  16
ATOM     16  N   UNL d   1      -8.698 -43.438  31.638  0.00  0.00     0.088 N 
ATOM     17  C   UNL d   1      -7.450 -43.443  32.417  0.00  0.00     0.310 C 
ATOM     18  C   UNL d   1      -8.348 -43.618  30.223  0.00  0.00     0.310 C 
ENDBRANCH  14  16
ENDBRANCH   5  14
TORSDOF 5
ENDMDL
