@<TRIPOS>MOLECULE
*****
 40 40 0 0 0
SMALL
GASTEIGER

@<TRIPOS>ATOM
      1 C           2.9121    2.0831    0.6571 C.3     1  UNL1       -0.0492
      2 C           2.4705    0.6313    0.5336 C.3     1  UNL1        0.0147
      3 N           3.0602   -0.2336    1.5496 N.am    1  UNL1       -0.2704
      4 C           4.3685   -0.6815    1.3794 C.2     1  UNL1        0.4079
      5 C           2.3887   -0.3715    2.8280 C.3     1  UNL1        0.0063
      6 O           4.8565   -1.3305    2.5200 O.3     1  UNL1       -0.4114
      7 O           5.0163   -0.4897    0.3569 O.2     1  UNL1       -0.2258
      8 C           6.2490   -1.4574    2.6914 C.ar    1  UNL1        0.1335
      9 C           7.1138   -0.4057    2.3854 C.ar    1  UNL1       -0.0192
     10 C           6.7255   -2.6173    3.3098 C.ar    1  UNL1       -0.0145
     11 C           8.4744   -0.5395    2.6334 C.ar    1  UNL1       -0.0580
     12 C           8.0998   -2.7577    3.5773 C.ar    1  UNL1       -0.0271
     13 C           8.9657   -1.7077    3.2175 C.ar    1  UNL1       -0.0569
     14 C           8.6738   -3.9550    4.3442 C.3     1  UNL1        0.0323
     15 N           8.0287   -5.2544    4.0159 N.3     1  UNL1       -0.3017
     16 C           8.5773   -3.5942    5.8404 C.3     1  UNL1       -0.0454
     17 C           8.2451   -5.6131    2.6060 C.3     1  UNL1       -0.0125
     18 C           8.5413   -6.3522    4.8465 C.3     1  UNL1       -0.0125
     19 H           2.4252    2.6914   -0.1126 H       1  UNL1        0.0245
     20 H           3.9947    2.1825    0.5274 H       1  UNL1        0.0245
     21 H           2.6521    2.4987    1.6356 H       1  UNL1        0.0245
     22 H           2.7597    0.2574   -0.4553 H       1  UNL1        0.0463
     23 H           1.3796    0.5591    0.5987 H       1  UNL1        0.0463
     24 H           1.3783    0.0419    2.7863 H       1  UNL1        0.0429
     25 H           2.9666    0.1443    3.6016 H       1  UNL1        0.0429
     26 H           2.3288   -1.4354    3.0791 H       1  UNL1        0.0429
     27 H           6.7381    0.5197    1.9588 H       1  UNL1        0.0654
     28 H           6.0324   -3.4059    3.5915 H       1  UNL1        0.0657
     29 H           9.1505    0.2748    2.3878 H       1  UNL1        0.0619
     30 H          10.0319   -1.7820    3.4219 H       1  UNL1        0.0621
     31 H           9.7420   -4.0359    4.0949 H       1  UNL1        0.0509
     32 H           7.5353   -3.5641    6.1795 H       1  UNL1        0.0248
     33 H           9.0143   -2.6075    6.0378 H       1  UNL1        0.0248
     34 H           9.1250   -4.3020    6.4701 H       1  UNL1        0.0248
     35 H           7.8352   -4.8642    1.9223 H       1  UNL1        0.0391
     36 H           7.7236   -6.5487    2.3714 H       1  UNL1        0.0391
     37 H           9.3081   -5.7478    2.3740 H       1  UNL1        0.0391
     38 H           8.2826   -6.2174    5.9008 H       1  UNL1        0.0391
     39 H           9.6295   -6.4593    4.7616 H       1  UNL1        0.0391
     40 H           8.0828   -7.3047    4.5551 H       1  UNL1        0.0391
@<TRIPOS>BOND
     1     1     2    1
     2     2     3    1
     3     3     5    1
     4     3     4   am
     5     4     7    2
     6     4     6    1
     7     6     8    1
     8     8     9   ar
     9     9    11   ar
    10    11    13   ar
    11    13    12   ar
    12    12    10   ar
    13     8    10   ar
    14    12    14    1
    15    14    16    1
    16    14    15    1
    17    15    17    1
    18    15    18    1
    19     1    19    1
    20     1    20    1
    21     1    21    1
    22     2    22    1
    23     2    23    1
    24     5    24    1
    25     5    25    1
    26     5    26    1
    27     9    27    1
    28    10    28    1
    29    11    29    1
    30    13    30    1
    31    14    31    1
    32    16    32    1
    33    16    33    1
    34    16    34    1
    35    17    35    1
    36    17    36    1
    37    17    37    1
    38    18    38    1
    39    18    39    1
    40    18    40    1
